*SPEF "ieee 1481-1999"
*DESIGN "alu"
*DATE "11:11:11 Fri 11 11, 1111"
*VENDOR "OpenRCX"
*PROGRAM "Parallel Extraction"
*VERSION "1.0"
*DESIGN_FLOW "NAME_SCOPE LOCAL" "PIN_CAP NONE"
*DIVIDER /
*DELIMITER :
*BUS_DELIMITER []
*T_UNIT 1 NS
*C_UNIT 1 PF
*R_UNIT 1 OHM
*L_UNIT 1 HENRY

*NAME_MAP
*3 control[0]
*4 control[1]
*5 control[2]
*6 control[3]
*7 data_in1[0]
*8 data_in1[10]
*9 data_in1[11]
*10 data_in1[12]
*11 data_in1[13]
*12 data_in1[14]
*13 data_in1[15]
*14 data_in1[16]
*15 data_in1[17]
*16 data_in1[18]
*17 data_in1[19]
*18 data_in1[1]
*19 data_in1[20]
*20 data_in1[21]
*21 data_in1[22]
*22 data_in1[23]
*23 data_in1[24]
*24 data_in1[25]
*25 data_in1[26]
*26 data_in1[27]
*27 data_in1[28]
*28 data_in1[29]
*29 data_in1[2]
*30 data_in1[30]
*31 data_in1[31]
*32 data_in1[3]
*33 data_in1[4]
*34 data_in1[5]
*35 data_in1[6]
*36 data_in1[7]
*37 data_in1[8]
*38 data_in1[9]
*39 data_in2[0]
*40 data_in2[10]
*41 data_in2[11]
*42 data_in2[12]
*43 data_in2[13]
*44 data_in2[14]
*45 data_in2[15]
*46 data_in2[16]
*47 data_in2[17]
*48 data_in2[18]
*49 data_in2[19]
*50 data_in2[1]
*51 data_in2[20]
*52 data_in2[21]
*53 data_in2[22]
*54 data_in2[23]
*55 data_in2[24]
*56 data_in2[25]
*57 data_in2[26]
*58 data_in2[27]
*59 data_in2[28]
*60 data_in2[29]
*61 data_in2[2]
*62 data_in2[30]
*63 data_in2[31]
*64 data_in2[3]
*65 data_in2[4]
*66 data_in2[5]
*67 data_in2[6]
*68 data_in2[7]
*69 data_in2[8]
*70 data_in2[9]
*71 data_out[0]
*72 data_out[10]
*73 data_out[11]
*74 data_out[12]
*75 data_out[13]
*76 data_out[14]
*77 data_out[15]
*78 data_out[16]
*79 data_out[17]
*80 data_out[18]
*81 data_out[19]
*82 data_out[1]
*83 data_out[20]
*84 data_out[21]
*85 data_out[22]
*86 data_out[23]
*87 data_out[24]
*88 data_out[25]
*89 data_out[26]
*90 data_out[27]
*91 data_out[28]
*92 data_out[29]
*93 data_out[2]
*94 data_out[30]
*95 data_out[31]
*96 data_out[3]
*97 data_out[4]
*98 data_out[5]
*99 data_out[6]
*100 data_out[7]
*101 data_out[8]
*102 data_out[9]
*103 _0000_
*104 _0001_
*105 _0002_
*106 _0003_
*107 _0004_
*108 _0005_
*109 _0006_
*110 _0007_
*111 _0008_
*112 _0009_
*113 _0010_
*114 _0011_
*115 _0012_
*116 _0013_
*117 _0014_
*118 _0015_
*119 _0016_
*120 _0017_
*121 _0018_
*122 _0019_
*123 _0020_
*124 _0021_
*125 _0022_
*126 _0023_
*127 _0024_
*128 _0025_
*129 _0026_
*130 _0027_
*131 _0028_
*132 _0029_
*133 _0030_
*134 _0031_
*135 _0032_
*136 _0033_
*137 _0034_
*138 _0035_
*139 _0036_
*140 _0037_
*141 _0038_
*142 _0039_
*143 _0040_
*144 _0041_
*145 _0042_
*146 _0043_
*147 _0044_
*148 _0045_
*149 _0046_
*150 _0047_
*151 _0048_
*152 _0049_
*153 _0050_
*154 _0051_
*155 _0052_
*156 _0053_
*157 _0054_
*158 _0055_
*159 _0056_
*160 _0057_
*161 _0058_
*162 _0059_
*163 _0060_
*164 _0061_
*165 _0062_
*166 _0063_
*167 _0064_
*168 _0065_
*169 _0066_
*170 _0067_
*171 _0068_
*172 _0069_
*173 _0070_
*174 _0071_
*175 _0072_
*176 _0073_
*177 _0074_
*178 _0075_
*179 _0076_
*180 _0077_
*181 _0078_
*182 _0079_
*183 _0080_
*184 _0081_
*185 _0082_
*186 _0083_
*187 _0084_
*188 _0085_
*189 _0086_
*190 _0087_
*191 _0088_
*192 _0089_
*193 _0090_
*194 _0091_
*195 _0092_
*196 _0093_
*197 _0094_
*198 _0095_
*199 _0096_
*200 _0097_
*201 _0098_
*202 _0099_
*203 _0100_
*204 _0101_
*205 _0102_
*206 _0103_
*207 _0104_
*208 _0105_
*209 _0106_
*210 _0107_
*211 _0108_
*212 _0109_
*213 _0110_
*214 _0111_
*215 _0112_
*216 _0113_
*217 _0114_
*218 _0115_
*219 _0116_
*220 _0117_
*221 _0118_
*222 _0119_
*223 _0120_
*224 _0121_
*225 _0122_
*226 _0123_
*227 _0124_
*228 _0125_
*229 _0126_
*230 _0127_
*231 _0128_
*232 _0129_
*233 _0130_
*234 _0131_
*235 _0132_
*236 _0133_
*237 _0134_
*238 _0135_
*239 _0136_
*240 _0137_
*241 _0138_
*242 _0139_
*243 _0140_
*244 _0141_
*245 _0142_
*246 _0143_
*247 _0144_
*248 _0145_
*249 _0146_
*250 _0147_
*251 _0148_
*252 _0149_
*253 _0150_
*254 _0151_
*255 _0152_
*256 _0153_
*257 _0154_
*258 _0155_
*259 _0156_
*260 _0157_
*261 _0158_
*262 _0159_
*263 _0160_
*264 _0161_
*265 _0162_
*266 _0163_
*267 _0164_
*268 _0165_
*269 _0166_
*270 _0167_
*271 _0168_
*272 _0169_
*273 _0170_
*274 _0171_
*275 _0172_
*276 _0173_
*277 _0174_
*278 _0175_
*279 _0176_
*280 _0177_
*281 _0178_
*282 _0179_
*283 _0180_
*284 _0181_
*285 _0182_
*286 _0183_
*287 _0184_
*288 _0185_
*289 _0186_
*290 _0187_
*291 _0188_
*292 _0189_
*293 _0190_
*294 _0191_
*295 _0192_
*296 _0193_
*297 _0194_
*298 _0195_
*299 _0196_
*300 _0197_
*301 _0198_
*302 _0199_
*303 _0200_
*304 _0201_
*305 _0202_
*306 _0203_
*307 _0204_
*308 _0205_
*309 _0206_
*310 _0207_
*311 _0208_
*312 _0209_
*313 _0210_
*314 _0211_
*315 _0212_
*316 _0213_
*317 _0214_
*318 _0215_
*319 _0216_
*320 _0217_
*321 _0218_
*322 _0219_
*323 _0220_
*324 _0221_
*325 _0222_
*326 _0223_
*327 _0224_
*328 _0225_
*329 _0226_
*330 _0227_
*331 _0228_
*332 _0229_
*333 _0230_
*334 _0231_
*335 _0232_
*336 _0233_
*337 _0234_
*338 _0235_
*339 _0236_
*340 _0237_
*341 _0238_
*342 _0239_
*343 _0240_
*344 _0241_
*345 _0242_
*346 _0243_
*347 _0244_
*348 _0245_
*349 _0246_
*350 _0247_
*351 _0248_
*352 _0249_
*353 _0250_
*354 _0251_
*355 _0252_
*356 _0253_
*357 _0254_
*358 _0255_
*359 _0256_
*360 _0257_
*361 _0258_
*362 _0259_
*363 _0260_
*364 _0261_
*365 _0262_
*366 _0263_
*367 _0264_
*368 _0265_
*369 _0266_
*370 _0267_
*371 _0268_
*372 _0269_
*373 _0270_
*374 _0271_
*375 _0272_
*376 _0273_
*377 _0274_
*378 _0275_
*379 _0276_
*380 _0277_
*381 _0278_
*382 _0279_
*383 _0280_
*384 _0281_
*385 _0282_
*386 _0283_
*387 _0284_
*388 _0285_
*389 _0286_
*390 _0287_
*391 _0288_
*392 _0289_
*393 _0290_
*394 _0291_
*395 _0292_
*396 _0293_
*397 _0294_
*398 _0295_
*399 _0296_
*400 _0297_
*401 _0298_
*402 _0299_
*403 _0300_
*404 _0301_
*405 _0302_
*406 _0303_
*407 _0304_
*408 _0305_
*409 _0306_
*410 _0307_
*411 _0308_
*412 _0309_
*413 _0310_
*414 _0311_
*415 _0312_
*416 _0313_
*417 _0314_
*418 _0315_
*419 _0316_
*420 _0317_
*421 _0318_
*422 _0319_
*423 _0320_
*424 _0321_
*425 _0322_
*426 _0323_
*427 _0324_
*428 _0325_
*429 _0326_
*430 _0327_
*431 _0328_
*432 _0329_
*433 _0330_
*434 _0331_
*435 _0332_
*436 _0333_
*437 _0334_
*438 _0335_
*439 _0336_
*440 _0337_
*441 _0338_
*442 _0339_
*443 _0340_
*444 _0341_
*445 _0342_
*446 _0343_
*447 _0344_
*448 _0345_
*449 _0346_
*450 _0347_
*451 _0348_
*452 _0349_
*453 _0350_
*454 _0351_
*455 _0352_
*456 _0353_
*457 _0354_
*458 _0355_
*459 _0356_
*460 _0357_
*461 _0358_
*462 _0359_
*463 _0360_
*464 _0361_
*465 _0362_
*466 _0363_
*467 _0364_
*468 _0365_
*469 _0366_
*470 _0367_
*471 _0368_
*472 _0369_
*473 _0370_
*474 _0371_
*475 _0372_
*476 _0373_
*477 _0374_
*478 _0375_
*479 _0376_
*480 _0377_
*481 _0378_
*482 _0379_
*483 _0380_
*484 _0381_
*485 _0382_
*486 _0383_
*487 _0384_
*488 _0385_
*489 _0386_
*490 _0387_
*491 _0388_
*492 _0389_
*493 _0390_
*494 _0391_
*495 _0392_
*496 _0393_
*497 _0394_
*498 _0395_
*499 _0396_
*500 _0397_
*501 _0398_
*502 _0399_
*503 _0400_
*504 _0401_
*505 _0402_
*506 _0403_
*507 _0404_
*508 _0405_
*509 _0406_
*510 _0407_
*511 _0408_
*512 _0409_
*513 _0410_
*514 _0411_
*515 _0412_
*516 _0413_
*517 _0414_
*518 _0415_
*519 _0416_
*520 _0417_
*521 _0418_
*522 _0419_
*523 _0420_
*524 _0421_
*525 _0422_
*526 _0423_
*527 _0424_
*528 _0425_
*529 _0426_
*530 _0427_
*531 _0428_
*532 _0429_
*533 _0430_
*534 _0431_
*535 _0432_
*536 _0433_
*537 _0434_
*538 _0435_
*539 _0436_
*540 _0437_
*541 _0438_
*542 _0439_
*543 _0440_
*544 _0441_
*545 _0442_
*546 _0443_
*547 _0444_
*548 _0445_
*549 _0446_
*550 _0447_
*551 _0448_
*552 _0449_
*553 _0450_
*554 _0451_
*555 _0452_
*556 _0453_
*557 _0454_
*558 _0455_
*559 _0456_
*560 _0457_
*561 _0458_
*562 _0459_
*563 _0460_
*564 _0461_
*565 _0462_
*566 _0463_
*567 _0464_
*568 _0465_
*569 _0466_
*570 _0467_
*571 _0468_
*572 _0469_
*573 _0470_
*574 _0471_
*575 _0472_
*576 _0473_
*577 _0474_
*578 _0475_
*579 _0476_
*580 _0477_
*581 _0478_
*582 _0479_
*583 _0480_
*584 _0481_
*585 _0482_
*586 _0483_
*587 _0484_
*588 _0485_
*589 _0486_
*590 _0487_
*591 _0488_
*592 _0489_
*593 _0490_
*594 _0491_
*595 _0492_
*596 _0493_
*597 _0494_
*598 _0495_
*599 _0496_
*600 _0497_
*601 _0498_
*602 _0499_
*603 _0500_
*604 _0501_
*605 _0502_
*606 _0503_
*607 _0504_
*608 _0505_
*609 _0506_
*610 _0507_
*611 _0508_
*612 _0509_
*613 _0510_
*614 _0511_
*615 _0512_
*616 _0513_
*617 _0514_
*618 _0515_
*619 _0516_
*620 _0517_
*621 _0518_
*622 _0519_
*623 _0520_
*624 _0521_
*625 _0522_
*626 _0523_
*627 _0524_
*628 _0525_
*629 _0526_
*630 _0527_
*631 _0528_
*632 _0529_
*633 _0530_
*634 _0531_
*635 _0532_
*636 _0533_
*637 _0534_
*638 _0535_
*639 _0536_
*640 _0537_
*641 _0538_
*642 _0539_
*643 _0540_
*644 _0541_
*645 _0542_
*646 _0543_
*647 _0544_
*648 _0545_
*649 _0546_
*650 _0547_
*651 _0548_
*652 _0549_
*653 _0550_
*654 _0551_
*655 _0552_
*656 _0553_
*657 _0554_
*658 _0555_
*659 _0556_
*660 _0557_
*661 _0558_
*662 _0559_
*663 _0560_
*664 _0561_
*665 _0562_
*666 _0563_
*667 _0564_
*668 _0565_
*669 _0566_
*670 _0567_
*671 _0568_
*672 _0569_
*673 _0570_
*674 _0571_
*675 _0572_
*676 _0573_
*677 _0574_
*678 _0575_
*679 _0576_
*680 _0577_
*681 _0578_
*682 _0579_
*683 _0580_
*684 _0581_
*685 _0582_
*686 _0583_
*687 _0584_
*688 _0585_
*689 _0586_
*690 _0587_
*691 _0588_
*692 _0589_
*693 _0590_
*694 _0591_
*695 _0592_
*696 _0593_
*697 _0594_
*698 _0595_
*699 _0596_
*700 _0597_
*701 _0598_
*702 _0599_
*703 _0600_
*704 _0601_
*705 _0602_
*706 _0603_
*707 _0604_
*708 _0605_
*709 _0606_
*710 _0607_
*711 _0608_
*712 _0609_
*713 _0610_
*714 _0611_
*715 _0612_
*716 _0613_
*717 _0614_
*718 _0615_
*719 _0616_
*720 _0617_
*721 _0618_
*722 _0619_
*723 _0620_
*724 _0621_
*725 _0622_
*726 _0623_
*727 _0624_
*728 _0625_
*729 _0626_
*730 _0627_
*731 _0628_
*732 _0629_
*733 _0630_
*734 _0631_
*735 _0632_
*736 _0633_
*737 _0634_
*738 _0635_
*739 _0636_
*740 _0637_
*741 _0638_
*742 _0639_
*743 _0640_
*744 _0641_
*745 _0642_
*746 _0643_
*747 _0644_
*748 _0645_
*749 _0646_
*750 _0647_
*751 _0648_
*752 _0649_
*753 _0650_
*754 _0651_
*755 _0652_
*756 _0653_
*757 _0654_
*758 _0655_
*759 _0656_
*760 _0657_
*761 _0658_
*762 _0659_
*763 _0660_
*764 _0661_
*765 _0662_
*766 _0663_
*767 _0664_
*768 _0665_
*769 _0666_
*770 _0667_
*771 _0668_
*772 _0669_
*773 _0670_
*774 _0671_
*775 _0672_
*776 _0673_
*777 _0674_
*778 _0675_
*779 _0676_
*780 _0677_
*781 _0678_
*782 _0679_
*783 _0680_
*784 _0681_
*785 _0682_
*786 _0683_
*787 _0684_
*788 _0685_
*789 _0686_
*790 _0687_
*791 _0688_
*792 _0689_
*793 _0690_
*794 _0691_
*795 _0692_
*796 _0693_
*797 _0694_
*798 _0695_
*799 _0696_
*800 _0697_
*801 _0698_
*802 _0699_
*803 _0700_
*804 _0701_
*805 _0702_
*806 _0703_
*807 _0704_
*808 _0705_
*809 _0706_
*810 _0707_
*811 _0708_
*812 _0709_
*813 _0710_
*814 _0711_
*815 _0712_
*816 _0713_
*817 _0714_
*818 _0715_
*819 _0716_
*820 _0717_
*821 _0718_
*822 _0719_
*823 _0720_
*824 _0721_
*825 _0722_
*826 _0723_
*827 _0724_
*828 _0725_
*829 _0726_
*830 _0727_
*831 _0728_
*832 _0729_
*833 _0730_
*834 _0731_
*835 _0732_
*836 _0733_
*837 _0734_
*838 _0735_
*839 _0736_
*840 _0737_
*841 _0738_
*842 _0739_
*843 _0740_
*844 _0741_
*845 _0742_
*846 _0743_
*847 _0744_
*848 _0745_
*849 _0746_
*850 _0747_
*851 _0748_
*852 _0749_
*853 _0750_
*854 _0751_
*855 _0752_
*856 _0753_
*857 _0754_
*858 _0755_
*859 _0756_
*860 _0757_
*861 _0758_
*862 _0759_
*863 _0760_
*864 _0761_
*865 _0762_
*866 _0763_
*867 _0764_
*868 _0765_
*869 _0766_
*870 _0767_
*871 _0768_
*872 _0769_
*873 _0770_
*874 _0771_
*875 _0772_
*876 _0773_
*877 _0774_
*878 _0775_
*879 _0776_
*880 _0777_
*881 _0778_
*882 _0779_
*883 _0780_
*884 _0781_
*885 _0782_
*886 _0783_
*887 _0784_
*888 _0785_
*889 _0786_
*890 _0787_
*891 _0788_
*892 _0789_
*893 _0790_
*894 _0791_
*895 _0792_
*896 _0793_
*897 _0794_
*898 _0795_
*899 _0796_
*900 _0797_
*901 _0798_
*902 _0799_
*903 _0800_
*904 _0801_
*905 _0802_
*906 _0803_
*907 _0804_
*908 _0805_
*909 _0806_
*910 _0807_
*911 _0808_
*912 _0809_
*913 _0810_
*914 _0811_
*915 _0812_
*916 _0813_
*917 _0814_
*918 _0815_
*919 _0816_
*920 _0817_
*921 _0818_
*922 _0819_
*923 _0820_
*924 _0821_
*925 _0822_
*926 _0823_
*927 _0824_
*928 _0825_
*929 _0826_
*930 _0827_
*931 _0828_
*932 _0829_
*933 _0830_
*934 _0831_
*935 _0832_
*936 _0833_
*937 _0834_
*938 _0835_
*939 _0836_
*940 _0837_
*941 _0838_
*942 _0839_
*943 _0840_
*944 _0841_
*945 _0842_
*946 _0843_
*947 _0844_
*948 _0845_
*949 _0846_
*950 _0847_
*951 _0848_
*952 _0849_
*953 _0850_
*954 _0851_
*955 _0852_
*956 _0853_
*957 _0854_
*958 _0855_
*959 _0856_
*960 _0857_
*961 _0858_
*962 _0859_
*963 _0860_
*964 _0861_
*965 _0862_
*966 _0863_
*967 _0864_
*968 _0865_
*969 _0866_
*970 _0867_
*971 _0868_
*972 _0869_
*973 _0870_
*974 _0871_
*975 _0872_
*976 _0873_
*977 _0874_
*978 _0875_
*979 _0876_
*980 _0877_
*981 _0878_
*982 _0879_
*983 _0880_
*984 _0881_
*985 _0882_
*986 _0883_
*987 _0884_
*988 _0885_
*989 _0886_
*990 _0887_
*991 _0888_
*992 _0889_
*993 _0890_
*994 _0891_
*995 _0892_
*996 _0893_
*997 _0894_
*998 _0895_
*999 _0896_
*1000 _0897_
*1001 _0898_
*1002 _0899_
*1003 _0900_
*1004 _0901_
*1005 _0902_
*1006 _0903_
*1007 _0904_
*1008 _0905_
*1009 _0906_
*1010 _0907_
*1011 _0908_
*1012 _0909_
*1013 _0910_
*1014 _0911_
*1015 _0912_
*1016 _0913_
*1017 _0914_
*1018 _0915_
*1019 _0916_
*1020 _0917_
*1021 _0918_
*1022 _0919_
*1023 _0920_
*1024 _0921_
*1025 _0922_
*1026 _0923_
*1027 _0924_
*1028 _0925_
*1029 _0926_
*1030 _0927_
*1031 _0928_
*1032 _0929_
*1033 _0930_
*1034 _0931_
*1035 _0932_
*1036 _0933_
*1037 _0934_
*1038 _0935_
*1039 _0936_
*1040 _0937_
*1041 _0938_
*1042 _0939_
*1043 _0940_
*1044 _0941_
*1045 _0942_
*1046 _0943_
*1047 _0944_
*1048 _0945_
*1049 _0946_
*1050 _0947_
*1051 _0948_
*1052 _0949_
*1053 _0950_
*1054 _0951_
*1055 _0952_
*1056 _0953_
*1057 _0954_
*1058 _0955_
*1059 _0956_
*1060 _0957_
*1061 _0958_
*1062 _0959_
*1063 _0960_
*1064 _0961_
*1065 _0962_
*1066 _0963_
*1067 _0964_
*1068 _0965_
*1069 _0966_
*1070 _0967_
*1071 _0968_
*1072 _0969_
*1073 _0970_
*1074 _0971_
*1075 _0972_
*1076 _0973_
*1077 _0974_
*1078 _0975_
*1079 _0976_
*1080 _0977_
*1081 _0978_
*1082 _0979_
*1083 _0980_
*1084 _0981_
*1085 _0982_
*1086 _0983_
*1087 _0984_
*1088 _0985_
*1089 _0986_
*1090 _0987_
*1091 _0988_
*1092 _0989_
*1093 _0990_
*1094 _0991_
*1095 _0992_
*1096 _0993_
*1097 _0994_
*1098 _0995_
*1099 _0996_
*1100 _0997_
*1101 _0998_
*1102 _0999_
*1103 _1000_
*1104 _1001_
*1105 _1002_
*1106 _1003_
*1107 _1004_
*1108 _1005_
*1109 _1006_
*1110 _1007_
*1111 _1008_
*1112 _1009_
*1113 _1010_
*1114 _1011_
*1115 _1012_
*1116 _1013_
*1117 _1014_
*1118 _1015_
*1119 _1016_
*1120 _1017_
*1121 _1018_
*1122 _1019_
*1123 _1020_
*1124 _1021_
*1125 _1022_
*1126 _1023_
*1127 _1024_
*1128 _1025_
*1129 _1026_
*1130 _1027_
*1131 _1028_
*1132 _1029_
*1133 _1030_
*1134 _1031_
*1135 _1032_
*1136 _1033_
*1137 _1034_
*1138 _1035_
*1139 _1036_
*1140 _1037_
*1141 _1038_
*1142 _1039_
*1143 _1040_
*1144 _1041_
*1145 _1042_
*1146 _1043_
*1147 _1044_
*1148 _1045_
*1149 _1046_
*1150 _1047_
*1151 _1048_
*1152 _1049_
*1153 _1050_
*1154 _1051_
*1155 _1052_
*1156 _1053_
*1157 _1054_
*1158 _1055_
*1159 _1056_
*1160 _1057_
*1161 _1058_
*1162 _1059_
*1163 _1060_
*1164 _1061_
*1165 _1062_
*1166 _1063_
*1167 _1064_
*1168 _1065_
*1169 _1066_
*1170 _1067_
*1171 _1068_
*1172 _1069_
*1173 _1070_
*1174 _1071_
*1175 _1072_
*1176 _1073_
*1177 _1074_
*1178 _1075_
*1179 _1076_
*1180 _1077_
*1181 _1078_
*1182 _1079_
*1183 _1080_
*1184 _1081_
*1185 _1082_
*1186 _1083_
*1187 _1084_
*1188 _1085_
*1189 _1086_
*1190 _1087_
*1191 _1088_
*1192 _1089_
*1193 _1090_
*1194 _1091_
*1195 _1092_
*1196 _1093_
*1197 _1094_
*1198 _1095_
*1199 _1096_
*1200 _1097_
*1201 _1098_
*1202 _1099_
*1203 _1100_
*1204 _1101_
*1205 _1102_
*1206 _1103_
*1207 _1104_
*1208 _1105_
*1209 _1106_
*1210 _1107_
*1211 _1108_
*1212 _1109_
*1213 _1110_
*1214 _1111_
*1215 _1112_
*1216 _1113_
*1217 _1114_
*1218 _1115_
*1219 _1116_
*1220 _1117_
*1221 _1118_
*1222 _1119_
*1223 _1120_
*1224 _1121_
*1225 _1122_
*1226 _1123_
*1227 _1124_
*1228 _1125_
*1229 _1126_
*1230 _1127_
*1231 _1128_
*1232 _1129_
*1233 _1130_
*1234 _1131_
*1235 _1132_
*1236 _1133_
*1237 _1134_
*1238 _1135_
*1239 _1136_
*1240 _1137_
*1241 _1138_
*1242 _1139_
*1243 _1140_
*1244 _1141_
*1245 net1
*1246 net10
*1247 net100
*1248 net101
*1249 net102
*1250 net103
*1251 net104
*1252 net105
*1253 net106
*1254 net107
*1255 net108
*1256 net109
*1257 net11
*1258 net110
*1259 net111
*1260 net112
*1261 net113
*1262 net114
*1263 net115
*1264 net116
*1265 net117
*1266 net118
*1267 net119
*1268 net12
*1269 net120
*1270 net121
*1271 net122
*1272 net123
*1273 net124
*1274 net125
*1275 net126
*1276 net127
*1277 net13
*1278 net14
*1279 net15
*1280 net16
*1281 net17
*1282 net18
*1283 net19
*1284 net2
*1285 net20
*1286 net21
*1287 net22
*1288 net23
*1289 net24
*1290 net25
*1291 net26
*1292 net27
*1293 net28
*1294 net29
*1295 net3
*1296 net30
*1297 net31
*1298 net32
*1299 net33
*1300 net34
*1301 net35
*1302 net36
*1303 net37
*1304 net38
*1305 net39
*1306 net4
*1307 net40
*1308 net41
*1309 net42
*1310 net43
*1311 net44
*1312 net45
*1313 net46
*1314 net47
*1315 net48
*1316 net49
*1317 net5
*1318 net50
*1319 net51
*1320 net52
*1321 net53
*1322 net54
*1323 net55
*1324 net56
*1325 net57
*1326 net58
*1327 net59
*1328 net6
*1329 net60
*1330 net61
*1331 net62
*1332 net63
*1333 net64
*1334 net65
*1335 net66
*1336 net67
*1337 net68
*1338 net69
*1339 net7
*1340 net70
*1341 net71
*1342 net72
*1343 net73
*1344 net74
*1345 net75
*1346 net76
*1347 net77
*1348 net78
*1349 net79
*1350 net8
*1351 net80
*1352 net81
*1353 net82
*1354 net83
*1355 net84
*1356 net85
*1357 net86
*1358 net87
*1359 net88
*1360 net89
*1361 net9
*1362 net90
*1363 net91
*1364 net92
*1365 net93
*1366 net94
*1367 net95
*1368 net96
*1369 net97
*1370 net98
*1371 net99
*1372 ANTENNA_1
*1373 FILLER_0_0_107
*1374 FILLER_0_0_111
*1375 FILLER_0_0_113
*1376 FILLER_0_0_121
*1377 FILLER_0_0_128
*1378 FILLER_0_0_147
*1379 FILLER_0_0_15
*1380 FILLER_0_0_155
*1381 FILLER_0_0_163
*1382 FILLER_0_0_167
*1383 FILLER_0_0_169
*1384 FILLER_0_0_177
*1385 FILLER_0_0_189
*1386 FILLER_0_0_195
*1387 FILLER_0_0_203
*1388 FILLER_0_0_212
*1389 FILLER_0_0_23
*1390 FILLER_0_0_231
*1391 FILLER_0_0_239
*1392 FILLER_0_0_247
*1393 FILLER_0_0_251
*1394 FILLER_0_0_253
*1395 FILLER_0_0_259
*1396 FILLER_0_0_27
*1397 FILLER_0_0_271
*1398 FILLER_0_0_279
*1399 FILLER_0_0_287
*1400 FILLER_0_0_29
*1401 FILLER_0_0_296
*1402 FILLER_0_0_309
*1403 FILLER_0_0_321
*1404 FILLER_0_0_329
*1405 FILLER_0_0_335
*1406 FILLER_0_0_337
*1407 FILLER_0_0_345
*1408 FILLER_0_0_357
*1409 FILLER_0_0_363
*1410 FILLER_0_0_37
*1411 FILLER_0_0_371
*1412 FILLER_0_0_380
*1413 FILLER_0_0_393
*1414 FILLER_0_0_44
*1415 FILLER_0_0_63
*1416 FILLER_0_0_71
*1417 FILLER_0_0_79
*1418 FILLER_0_0_83
*1419 FILLER_0_0_85
*1420 FILLER_0_0_93
*1421 FILLER_0_10_100
*1422 FILLER_0_10_125
*1423 FILLER_0_10_141
*1424 FILLER_0_10_149
*1425 FILLER_0_10_15
*1426 FILLER_0_10_172
*1427 FILLER_0_10_181
*1428 FILLER_0_10_185
*1429 FILLER_0_10_193
*1430 FILLER_0_10_197
*1431 FILLER_0_10_214
*1432 FILLER_0_10_227
*1433 FILLER_0_10_234
*1434 FILLER_0_10_238
*1435 FILLER_0_10_244
*1436 FILLER_0_10_253
*1437 FILLER_0_10_266
*1438 FILLER_0_10_27
*1439 FILLER_0_10_274
*1440 FILLER_0_10_278
*1441 FILLER_0_10_286
*1442 FILLER_0_10_29
*1443 FILLER_0_10_292
*1444 FILLER_0_10_3
*1445 FILLER_0_10_307
*1446 FILLER_0_10_309
*1447 FILLER_0_10_321
*1448 FILLER_0_10_333
*1449 FILLER_0_10_345
*1450 FILLER_0_10_357
*1451 FILLER_0_10_363
*1452 FILLER_0_10_365
*1453 FILLER_0_10_377
*1454 FILLER_0_10_389
*1455 FILLER_0_10_401
*1456 FILLER_0_10_41
*1457 FILLER_0_10_53
*1458 FILLER_0_10_61
*1459 FILLER_0_10_66
*1460 FILLER_0_10_81
*1461 FILLER_0_10_88
*1462 FILLER_0_11_105
*1463 FILLER_0_11_110
*1464 FILLER_0_11_113
*1465 FILLER_0_11_119
*1466 FILLER_0_11_127
*1467 FILLER_0_11_144
*1468 FILLER_0_11_156
*1469 FILLER_0_11_178
*1470 FILLER_0_11_198
*1471 FILLER_0_11_21
*1472 FILLER_0_11_222
*1473 FILLER_0_11_232
*1474 FILLER_0_11_245
*1475 FILLER_0_11_257
*1476 FILLER_0_11_263
*1477 FILLER_0_11_270
*1478 FILLER_0_11_278
*1479 FILLER_0_11_281
*1480 FILLER_0_11_285
*1481 FILLER_0_11_296
*1482 FILLER_0_11_308
*1483 FILLER_0_11_320
*1484 FILLER_0_11_33
*1485 FILLER_0_11_332
*1486 FILLER_0_11_337
*1487 FILLER_0_11_349
*1488 FILLER_0_11_361
*1489 FILLER_0_11_373
*1490 FILLER_0_11_385
*1491 FILLER_0_11_391
*1492 FILLER_0_11_393
*1493 FILLER_0_11_405
*1494 FILLER_0_11_45
*1495 FILLER_0_11_53
*1496 FILLER_0_11_57
*1497 FILLER_0_11_71
*1498 FILLER_0_11_75
*1499 FILLER_0_11_9
*1500 FILLER_0_11_93
*1501 FILLER_0_12_11
*1502 FILLER_0_12_121
*1503 FILLER_0_12_133
*1504 FILLER_0_12_139
*1505 FILLER_0_12_151
*1506 FILLER_0_12_172
*1507 FILLER_0_12_176
*1508 FILLER_0_12_192
*1509 FILLER_0_12_197
*1510 FILLER_0_12_205
*1511 FILLER_0_12_212
*1512 FILLER_0_12_219
*1513 FILLER_0_12_227
*1514 FILLER_0_12_23
*1515 FILLER_0_12_245
*1516 FILLER_0_12_251
*1517 FILLER_0_12_253
*1518 FILLER_0_12_268
*1519 FILLER_0_12_27
*1520 FILLER_0_12_280
*1521 FILLER_0_12_288
*1522 FILLER_0_12_29
*1523 FILLER_0_12_297
*1524 FILLER_0_12_3
*1525 FILLER_0_12_305
*1526 FILLER_0_12_309
*1527 FILLER_0_12_321
*1528 FILLER_0_12_333
*1529 FILLER_0_12_345
*1530 FILLER_0_12_357
*1531 FILLER_0_12_363
*1532 FILLER_0_12_365
*1533 FILLER_0_12_377
*1534 FILLER_0_12_389
*1535 FILLER_0_12_41
*1536 FILLER_0_12_53
*1537 FILLER_0_12_65
*1538 FILLER_0_12_7
*1539 FILLER_0_13_104
*1540 FILLER_0_13_110
*1541 FILLER_0_13_113
*1542 FILLER_0_13_132
*1543 FILLER_0_13_145
*1544 FILLER_0_13_15
*1545 FILLER_0_13_158
*1546 FILLER_0_13_166
*1547 FILLER_0_13_169
*1548 FILLER_0_13_181
*1549 FILLER_0_13_190
*1550 FILLER_0_13_202
*1551 FILLER_0_13_206
*1552 FILLER_0_13_212
*1553 FILLER_0_13_27
*1554 FILLER_0_13_272
*1555 FILLER_0_13_281
*1556 FILLER_0_13_293
*1557 FILLER_0_13_3
*1558 FILLER_0_13_305
*1559 FILLER_0_13_317
*1560 FILLER_0_13_329
*1561 FILLER_0_13_335
*1562 FILLER_0_13_337
*1563 FILLER_0_13_349
*1564 FILLER_0_13_361
*1565 FILLER_0_13_373
*1566 FILLER_0_13_385
*1567 FILLER_0_13_39
*1568 FILLER_0_13_391
*1569 FILLER_0_13_393
*1570 FILLER_0_13_405
*1571 FILLER_0_13_50
*1572 FILLER_0_13_57
*1573 FILLER_0_13_63
*1574 FILLER_0_13_71
*1575 FILLER_0_13_75
*1576 FILLER_0_13_79
*1577 FILLER_0_13_85
*1578 FILLER_0_13_92
*1579 FILLER_0_13_98
*1580 FILLER_0_14_106
*1581 FILLER_0_14_115
*1582 FILLER_0_14_129
*1583 FILLER_0_14_137
*1584 FILLER_0_14_144
*1585 FILLER_0_14_154
*1586 FILLER_0_14_162
*1587 FILLER_0_14_168
*1588 FILLER_0_14_197
*1589 FILLER_0_14_203
*1590 FILLER_0_14_21
*1591 FILLER_0_14_211
*1592 FILLER_0_14_224
*1593 FILLER_0_14_236
*1594 FILLER_0_14_242
*1595 FILLER_0_14_250
*1596 FILLER_0_14_253
*1597 FILLER_0_14_265
*1598 FILLER_0_14_27
*1599 FILLER_0_14_277
*1600 FILLER_0_14_285
*1601 FILLER_0_14_29
*1602 FILLER_0_14_294
*1603 FILLER_0_14_302
*1604 FILLER_0_14_309
*1605 FILLER_0_14_321
*1606 FILLER_0_14_333
*1607 FILLER_0_14_345
*1608 FILLER_0_14_357
*1609 FILLER_0_14_363
*1610 FILLER_0_14_365
*1611 FILLER_0_14_377
*1612 FILLER_0_14_389
*1613 FILLER_0_14_401
*1614 FILLER_0_14_41
*1615 FILLER_0_14_77
*1616 FILLER_0_14_83
*1617 FILLER_0_14_85
*1618 FILLER_0_14_9
*1619 FILLER_0_14_94
*1620 FILLER_0_15_104
*1621 FILLER_0_15_113
*1622 FILLER_0_15_129
*1623 FILLER_0_15_144
*1624 FILLER_0_15_15
*1625 FILLER_0_15_173
*1626 FILLER_0_15_194
*1627 FILLER_0_15_198
*1628 FILLER_0_15_223
*1629 FILLER_0_15_231
*1630 FILLER_0_15_242
*1631 FILLER_0_15_248
*1632 FILLER_0_15_256
*1633 FILLER_0_15_264
*1634 FILLER_0_15_27
*1635 FILLER_0_15_274
*1636 FILLER_0_15_281
*1637 FILLER_0_15_285
*1638 FILLER_0_15_293
*1639 FILLER_0_15_3
*1640 FILLER_0_15_307
*1641 FILLER_0_15_319
*1642 FILLER_0_15_331
*1643 FILLER_0_15_335
*1644 FILLER_0_15_337
*1645 FILLER_0_15_349
*1646 FILLER_0_15_361
*1647 FILLER_0_15_373
*1648 FILLER_0_15_385
*1649 FILLER_0_15_39
*1650 FILLER_0_15_391
*1651 FILLER_0_15_393
*1652 FILLER_0_15_51
*1653 FILLER_0_15_55
*1654 FILLER_0_15_73
*1655 FILLER_0_15_85
*1656 FILLER_0_15_92
*1657 FILLER_0_16_106
*1658 FILLER_0_16_122
*1659 FILLER_0_16_164
*1660 FILLER_0_16_172
*1661 FILLER_0_16_180
*1662 FILLER_0_16_186
*1663 FILLER_0_16_194
*1664 FILLER_0_16_197
*1665 FILLER_0_16_209
*1666 FILLER_0_16_21
*1667 FILLER_0_16_239
*1668 FILLER_0_16_248
*1669 FILLER_0_16_260
*1670 FILLER_0_16_267
*1671 FILLER_0_16_27
*1672 FILLER_0_16_275
*1673 FILLER_0_16_287
*1674 FILLER_0_16_29
*1675 FILLER_0_16_295
*1676 FILLER_0_16_301
*1677 FILLER_0_16_307
*1678 FILLER_0_16_309
*1679 FILLER_0_16_321
*1680 FILLER_0_16_333
*1681 FILLER_0_16_345
*1682 FILLER_0_16_357
*1683 FILLER_0_16_363
*1684 FILLER_0_16_365
*1685 FILLER_0_16_377
*1686 FILLER_0_16_389
*1687 FILLER_0_16_401
*1688 FILLER_0_16_41
*1689 FILLER_0_16_53
*1690 FILLER_0_16_66
*1691 FILLER_0_16_74
*1692 FILLER_0_16_80
*1693 FILLER_0_16_9
*1694 FILLER_0_16_98
*1695 FILLER_0_17_104
*1696 FILLER_0_17_125
*1697 FILLER_0_17_137
*1698 FILLER_0_17_149
*1699 FILLER_0_17_15
*1700 FILLER_0_17_161
*1701 FILLER_0_17_167
*1702 FILLER_0_17_169
*1703 FILLER_0_17_175
*1704 FILLER_0_17_183
*1705 FILLER_0_17_189
*1706 FILLER_0_17_207
*1707 FILLER_0_17_229
*1708 FILLER_0_17_241
*1709 FILLER_0_17_251
*1710 FILLER_0_17_259
*1711 FILLER_0_17_27
*1712 FILLER_0_17_270
*1713 FILLER_0_17_278
*1714 FILLER_0_17_281
*1715 FILLER_0_17_289
*1716 FILLER_0_17_297
*1717 FILLER_0_17_3
*1718 FILLER_0_17_309
*1719 FILLER_0_17_321
*1720 FILLER_0_17_333
*1721 FILLER_0_17_337
*1722 FILLER_0_17_349
*1723 FILLER_0_17_361
*1724 FILLER_0_17_373
*1725 FILLER_0_17_385
*1726 FILLER_0_17_39
*1727 FILLER_0_17_391
*1728 FILLER_0_17_393
*1729 FILLER_0_17_51
*1730 FILLER_0_17_55
*1731 FILLER_0_17_57
*1732 FILLER_0_17_61
*1733 FILLER_0_17_67
*1734 FILLER_0_17_79
*1735 FILLER_0_17_83
*1736 FILLER_0_18_100
*1737 FILLER_0_18_112
*1738 FILLER_0_18_124
*1739 FILLER_0_18_130
*1740 FILLER_0_18_139
*1741 FILLER_0_18_15
*1742 FILLER_0_18_151
*1743 FILLER_0_18_161
*1744 FILLER_0_18_197
*1745 FILLER_0_18_209
*1746 FILLER_0_18_222
*1747 FILLER_0_18_231
*1748 FILLER_0_18_243
*1749 FILLER_0_18_251
*1750 FILLER_0_18_253
*1751 FILLER_0_18_265
*1752 FILLER_0_18_27
*1753 FILLER_0_18_271
*1754 FILLER_0_18_279
*1755 FILLER_0_18_29
*1756 FILLER_0_18_295
*1757 FILLER_0_18_3
*1758 FILLER_0_18_307
*1759 FILLER_0_18_309
*1760 FILLER_0_18_321
*1761 FILLER_0_18_333
*1762 FILLER_0_18_345
*1763 FILLER_0_18_357
*1764 FILLER_0_18_363
*1765 FILLER_0_18_365
*1766 FILLER_0_18_377
*1767 FILLER_0_18_389
*1768 FILLER_0_18_401
*1769 FILLER_0_18_41
*1770 FILLER_0_18_66
*1771 FILLER_0_18_75
*1772 FILLER_0_19_110
*1773 FILLER_0_19_113
*1774 FILLER_0_19_125
*1775 FILLER_0_19_133
*1776 FILLER_0_19_140
*1777 FILLER_0_19_15
*1778 FILLER_0_19_197
*1779 FILLER_0_19_209
*1780 FILLER_0_19_214
*1781 FILLER_0_19_225
*1782 FILLER_0_19_234
*1783 FILLER_0_19_252
*1784 FILLER_0_19_27
*1785 FILLER_0_19_277
*1786 FILLER_0_19_281
*1787 FILLER_0_19_293
*1788 FILLER_0_19_3
*1789 FILLER_0_19_305
*1790 FILLER_0_19_317
*1791 FILLER_0_19_329
*1792 FILLER_0_19_335
*1793 FILLER_0_19_337
*1794 FILLER_0_19_349
*1795 FILLER_0_19_361
*1796 FILLER_0_19_373
*1797 FILLER_0_19_385
*1798 FILLER_0_19_39
*1799 FILLER_0_19_391
*1800 FILLER_0_19_393
*1801 FILLER_0_19_405
*1802 FILLER_0_19_51
*1803 FILLER_0_19_55
*1804 FILLER_0_19_57
*1805 FILLER_0_19_66
*1806 FILLER_0_19_78
*1807 FILLER_0_19_82
*1808 FILLER_0_19_86
*1809 FILLER_0_19_98
*1810 FILLER_0_1_105
*1811 FILLER_0_1_111
*1812 FILLER_0_1_113
*1813 FILLER_0_1_125
*1814 FILLER_0_1_129
*1815 FILLER_0_1_141
*1816 FILLER_0_1_15
*1817 FILLER_0_1_153
*1818 FILLER_0_1_165
*1819 FILLER_0_1_169
*1820 FILLER_0_1_181
*1821 FILLER_0_1_193
*1822 FILLER_0_1_205
*1823 FILLER_0_1_217
*1824 FILLER_0_1_223
*1825 FILLER_0_1_225
*1826 FILLER_0_1_237
*1827 FILLER_0_1_249
*1828 FILLER_0_1_261
*1829 FILLER_0_1_27
*1830 FILLER_0_1_272
*1831 FILLER_0_1_281
*1832 FILLER_0_1_293
*1833 FILLER_0_1_305
*1834 FILLER_0_1_317
*1835 FILLER_0_1_329
*1836 FILLER_0_1_335
*1837 FILLER_0_1_337
*1838 FILLER_0_1_349
*1839 FILLER_0_1_361
*1840 FILLER_0_1_373
*1841 FILLER_0_1_385
*1842 FILLER_0_1_39
*1843 FILLER_0_1_391
*1844 FILLER_0_1_393
*1845 FILLER_0_1_401
*1846 FILLER_0_1_51
*1847 FILLER_0_1_55
*1848 FILLER_0_1_57
*1849 FILLER_0_1_69
*1850 FILLER_0_1_81
*1851 FILLER_0_1_93
*1852 FILLER_0_20_102
*1853 FILLER_0_20_110
*1854 FILLER_0_20_139
*1855 FILLER_0_20_141
*1856 FILLER_0_20_154
*1857 FILLER_0_20_185
*1858 FILLER_0_20_189
*1859 FILLER_0_20_197
*1860 FILLER_0_20_21
*1861 FILLER_0_20_224
*1862 FILLER_0_20_245
*1863 FILLER_0_20_256
*1864 FILLER_0_20_267
*1865 FILLER_0_20_27
*1866 FILLER_0_20_29
*1867 FILLER_0_20_295
*1868 FILLER_0_20_307
*1869 FILLER_0_20_315
*1870 FILLER_0_20_327
*1871 FILLER_0_20_339
*1872 FILLER_0_20_351
*1873 FILLER_0_20_363
*1874 FILLER_0_20_365
*1875 FILLER_0_20_377
*1876 FILLER_0_20_389
*1877 FILLER_0_20_401
*1878 FILLER_0_20_41
*1879 FILLER_0_20_53
*1880 FILLER_0_20_59
*1881 FILLER_0_20_63
*1882 FILLER_0_20_71
*1883 FILLER_0_20_79
*1884 FILLER_0_20_83
*1885 FILLER_0_20_9
*1886 FILLER_0_20_91
*1887 FILLER_0_21_111
*1888 FILLER_0_21_122
*1889 FILLER_0_21_136
*1890 FILLER_0_21_140
*1891 FILLER_0_21_147
*1892 FILLER_0_21_15
*1893 FILLER_0_21_157
*1894 FILLER_0_21_167
*1895 FILLER_0_21_169
*1896 FILLER_0_21_181
*1897 FILLER_0_21_203
*1898 FILLER_0_21_215
*1899 FILLER_0_21_223
*1900 FILLER_0_21_225
*1901 FILLER_0_21_237
*1902 FILLER_0_21_260
*1903 FILLER_0_21_27
*1904 FILLER_0_21_272
*1905 FILLER_0_21_281
*1906 FILLER_0_21_285
*1907 FILLER_0_21_293
*1908 FILLER_0_21_3
*1909 FILLER_0_21_305
*1910 FILLER_0_21_317
*1911 FILLER_0_21_329
*1912 FILLER_0_21_335
*1913 FILLER_0_21_337
*1914 FILLER_0_21_349
*1915 FILLER_0_21_361
*1916 FILLER_0_21_373
*1917 FILLER_0_21_385
*1918 FILLER_0_21_39
*1919 FILLER_0_21_391
*1920 FILLER_0_21_393
*1921 FILLER_0_21_51
*1922 FILLER_0_21_55
*1923 FILLER_0_21_57
*1924 FILLER_0_21_65
*1925 FILLER_0_21_75
*1926 FILLER_0_21_87
*1927 FILLER_0_22_107
*1928 FILLER_0_22_111
*1929 FILLER_0_22_118
*1930 FILLER_0_22_138
*1931 FILLER_0_22_146
*1932 FILLER_0_22_15
*1933 FILLER_0_22_160
*1934 FILLER_0_22_168
*1935 FILLER_0_22_176
*1936 FILLER_0_22_183
*1937 FILLER_0_22_189
*1938 FILLER_0_22_195
*1939 FILLER_0_22_197
*1940 FILLER_0_22_205
*1941 FILLER_0_22_220
*1942 FILLER_0_22_226
*1943 FILLER_0_22_238
*1944 FILLER_0_22_250
*1945 FILLER_0_22_253
*1946 FILLER_0_22_261
*1947 FILLER_0_22_268
*1948 FILLER_0_22_27
*1949 FILLER_0_22_284
*1950 FILLER_0_22_29
*1951 FILLER_0_22_292
*1952 FILLER_0_22_319
*1953 FILLER_0_22_331