* NGSPICE file created from control_unity.ext - technology: sky130A

* Black-box entry subcircuit for sky130_fd_sc_hd__tapvpwrvgnd_1 abstract view
.subckt sky130_fd_sc_hd__tapvpwrvgnd_1 VGND VPWR
.ends

* Black-box entry subcircuit for sky130_ef_sc_hd__decap_12 abstract view
.subckt sky130_ef_sc_hd__decap_12 VGND VNB VPB VPWR
.ends

* Black-box entry subcircuit for sky130_fd_sc_hd__fill_1 abstract view
.subckt sky130_fd_sc_hd__fill_1 VGND VNB VPB VPWR
.ends

* Black-box entry subcircuit for sky130_fd_sc_hd__decap_6 abstract view
.subckt sky130_fd_sc_hd__decap_6 VGND VNB VPB VPWR
.ends

* Black-box entry subcircuit for sky130_fd_sc_hd__decap_4 abstract view
.subckt sky130_fd_sc_hd__decap_4 VGND VNB VPB VPWR
.ends

* Black-box entry subcircuit for sky130_fd_sc_hd__fill_2 abstract view
.subckt sky130_fd_sc_hd__fill_2 VGND VNB VPB VPWR
.ends

* Black-box entry subcircuit for sky130_fd_sc_hd__or3b_2 abstract view
.subckt sky130_fd_sc_hd__or3b_2 A B C_N VGND VNB VPB VPWR X
.ends

* Black-box entry subcircuit for sky130_fd_sc_hd__decap_8 abstract view
.subckt sky130_fd_sc_hd__decap_8 VGND VNB VPB VPWR
.ends

* Black-box entry subcircuit for sky130_fd_sc_hd__dlxtn_1 abstract view
.subckt sky130_fd_sc_hd__dlxtn_1 D GATE_N VGND VNB VPB VPWR Q
.ends

* Black-box entry subcircuit for sky130_fd_sc_hd__clkbuf_4 abstract view
.subckt sky130_fd_sc_hd__clkbuf_4 A VGND VNB VPB VPWR X
.ends

* Black-box entry subcircuit for sky130_fd_sc_hd__buf_2 abstract view
.subckt sky130_fd_sc_hd__buf_2 A VGND VNB VPB VPWR X
.ends

* Black-box entry subcircuit for sky130_fd_sc_hd__decap_3 abstract view
.subckt sky130_fd_sc_hd__decap_3 VGND VNB VPB VPWR
.ends

* Black-box entry subcircuit for sky130_fd_sc_hd__clkbuf_2 abstract view
.subckt sky130_fd_sc_hd__clkbuf_2 A VGND VNB VPB VPWR X
.ends

* Black-box entry subcircuit for sky130_fd_sc_hd__or2_1 abstract view
.subckt sky130_fd_sc_hd__or2_1 A B VGND VNB VPB VPWR X
.ends

* Black-box entry subcircuit for sky130_fd_sc_hd__a21o_1 abstract view
.subckt sky130_fd_sc_hd__a21o_1 A1 A2 B1 VGND VNB VPB VPWR X
.ends

* Black-box entry subcircuit for sky130_fd_sc_hd__clkbuf_1 abstract view
.subckt sky130_fd_sc_hd__clkbuf_1 A VGND VNB VPB VPWR X
.ends

* Black-box entry subcircuit for sky130_fd_sc_hd__inv_2 abstract view
.subckt sky130_fd_sc_hd__inv_2 A VGND VNB VPB VPWR Y
.ends

* Black-box entry subcircuit for sky130_fd_sc_hd__o21ai_1 abstract view
.subckt sky130_fd_sc_hd__o21ai_1 A1 A2 B1 VGND VNB VPB VPWR Y
.ends

* Black-box entry subcircuit for sky130_fd_sc_hd__a21oi_1 abstract view
.subckt sky130_fd_sc_hd__a21oi_1 A1 A2 B1 VGND VNB VPB VPWR Y
.ends

* Black-box entry subcircuit for sky130_fd_sc_hd__a21oi_2 abstract view
.subckt sky130_fd_sc_hd__a21oi_2 A1 A2 B1 VGND VNB VPB VPWR Y
.ends

* Black-box entry subcircuit for sky130_fd_sc_hd__or2b_1 abstract view
.subckt sky130_fd_sc_hd__or2b_1 A B_N VGND VNB VPB VPWR X
.ends

* Black-box entry subcircuit for sky130_fd_sc_hd__or4_4 abstract view
.subckt sky130_fd_sc_hd__or4_4 A B C D VGND VNB VPB VPWR X
.ends

* Black-box entry subcircuit for sky130_fd_sc_hd__or3b_1 abstract view
.subckt sky130_fd_sc_hd__or3b_1 A B C_N VGND VNB VPB VPWR X
.ends

* Black-box entry subcircuit for sky130_fd_sc_hd__or4bb_4 abstract view
.subckt sky130_fd_sc_hd__or4bb_4 A B C_N D_N VGND VNB VPB VPWR X
.ends

* Black-box entry subcircuit for sky130_fd_sc_hd__a21bo_1 abstract view
.subckt sky130_fd_sc_hd__a21bo_1 A1 A2 B1_N VGND VNB VPB VPWR X
.ends

* Black-box entry subcircuit for sky130_fd_sc_hd__nand2_1 abstract view
.subckt sky130_fd_sc_hd__nand2_1 A B VGND VNB VPB VPWR Y
.ends

* Black-box entry subcircuit for sky130_fd_sc_hd__and2_1 abstract view
.subckt sky130_fd_sc_hd__and2_1 A B VGND VNB VPB VPWR X
.ends

* Black-box entry subcircuit for sky130_fd_sc_hd__and3_1 abstract view
.subckt sky130_fd_sc_hd__and3_1 A B C VGND VNB VPB VPWR X
.ends

* Black-box entry subcircuit for sky130_fd_sc_hd__buf_1 abstract view
.subckt sky130_fd_sc_hd__buf_1 A VGND VNB VPB VPWR X
.ends

* Black-box entry subcircuit for sky130_fd_sc_hd__and4b_1 abstract view
.subckt sky130_fd_sc_hd__and4b_1 A_N B C D VGND VNB VPB VPWR X
.ends

* Black-box entry subcircuit for sky130_fd_sc_hd__a22o_1 abstract view
.subckt sky130_fd_sc_hd__a22o_1 A1 A2 B1 B2 VGND VNB VPB VPWR X
.ends

* Black-box entry subcircuit for sky130_fd_sc_hd__a32o_1 abstract view
.subckt sky130_fd_sc_hd__a32o_1 A1 A2 A3 B1 B2 VGND VNB VPB VPWR X
.ends

* Black-box entry subcircuit for sky130_fd_sc_hd__or3_1 abstract view
.subckt sky130_fd_sc_hd__or3_1 A B C VGND VNB VPB VPWR X
.ends

* Black-box entry subcircuit for sky130_fd_sc_hd__o32a_1 abstract view
.subckt sky130_fd_sc_hd__o32a_1 A1 A2 A3 B1 B2 VGND VNB VPB VPWR X
.ends

* Black-box entry subcircuit for sky130_fd_sc_hd__dlymetal6s2s_1 abstract view
.subckt sky130_fd_sc_hd__dlymetal6s2s_1 A VGND VNB VPB VPWR X
.ends

* Black-box entry subcircuit for sky130_fd_sc_hd__nor2_1 abstract view
.subckt sky130_fd_sc_hd__nor2_1 A B VGND VNB VPB VPWR Y
.ends

* Black-box entry subcircuit for sky130_fd_sc_hd__nor3_1 abstract view
.subckt sky130_fd_sc_hd__nor3_1 A B C VGND VNB VPB VPWR Y
.ends

* Black-box entry subcircuit for sky130_fd_sc_hd__o21ai_2 abstract view
.subckt sky130_fd_sc_hd__o21ai_2 A1 A2 B1 VGND VNB VPB VPWR Y
.ends

* Black-box entry subcircuit for sky130_fd_sc_hd__and4_1 abstract view
.subckt sky130_fd_sc_hd__and4_1 A B C D VGND VNB VPB VPWR X
.ends

* Black-box entry subcircuit for sky130_fd_sc_hd__o21a_1 abstract view
.subckt sky130_fd_sc_hd__o21a_1 A1 A2 B1 VGND VNB VPB VPWR X
.ends

* Black-box entry subcircuit for sky130_fd_sc_hd__a22oi_1 abstract view
.subckt sky130_fd_sc_hd__a22oi_1 A1 A2 B1 B2 VGND VNB VPB VPWR Y
.ends

* Black-box entry subcircuit for sky130_fd_sc_hd__nand3b_1 abstract view
.subckt sky130_fd_sc_hd__nand3b_1 A_N B C VGND VNB VPB VPWR Y
.ends

* Black-box entry subcircuit for sky130_fd_sc_hd__or3_2 abstract view
.subckt sky130_fd_sc_hd__or3_2 A B C VGND VNB VPB VPWR X
.ends

* Black-box entry subcircuit for sky130_fd_sc_hd__or4_1 abstract view
.subckt sky130_fd_sc_hd__or4_1 A B C D VGND VNB VPB VPWR X
.ends

* Black-box entry subcircuit for sky130_fd_sc_hd__a2111oi_2 abstract view
.subckt sky130_fd_sc_hd__a2111oi_2 A1 A2 B1 C1 D1 VGND VNB VPB VPWR Y
.ends

.subckt control_unity VGND VPWR alu_control[0] alu_control[1] alu_control[2] alu_control[3]
+ alu_mux_in alu_mux_out br_enable br_mux_inv databus[0] databus[1] databus[2] funct3[0]
+ funct3[1] funct3[2] funct7[0] funct7[1] funct7[2] funct7[3] funct7[4] funct7[5]
+ funct7[6] imm_rd opcode[0] opcode[1] opcode[2] opcode[3] opcode[4] opcode[5] opcode[6]
+ ram_w_enable register_w_enable
XTAP_188 VGND VPWR sky130_fd_sc_hd__tapvpwrvgnd_1
XTAP_177 VGND VPWR sky130_fd_sc_hd__tapvpwrvgnd_1
XTAP_199 VGND VPWR sky130_fd_sc_hd__tapvpwrvgnd_1
XFILLER_0_27_93 VGND VGND VPWR VPWR sky130_ef_sc_hd__decap_12
XFILLER_0_57_391 VGND VGND VPWR VPWR sky130_fd_sc_hd__fill_1
XFILLER_0_43_81 VGND VGND VPWR VPWR sky130_ef_sc_hd__decap_12
XFILLER_0_7_81 VGND VGND VPWR VPWR sky130_ef_sc_hd__decap_12
XFILLER_0_55_317 VGND VGND VPWR VPWR sky130_ef_sc_hd__decap_12
XFILLER_0_63_361 VGND VGND VPWR VPWR sky130_ef_sc_hd__decap_12
XFILLER_0_23_225 VGND VGND VPWR VPWR sky130_ef_sc_hd__decap_12
XFILLER_0_48_15 VGND VGND VPWR VPWR sky130_ef_sc_hd__decap_12
XFILLER_0_64_69 VGND VGND VPWR VPWR sky130_ef_sc_hd__decap_12
XFILLER_0_3_39 VGND VGND VPWR VPWR sky130_ef_sc_hd__decap_12
XFILLER_0_58_177 VGND VGND VPWR VPWR sky130_ef_sc_hd__decap_12
XFILLER_0_58_133 VGND VGND VPWR VPWR sky130_fd_sc_hd__decap_6
XFILLER_0_39_391 VGND VGND VPWR VPWR sky130_fd_sc_hd__fill_1
XFILLER_0_13_51 VGND VGND VPWR VPWR sky130_fd_sc_hd__decap_4
XFILLER_0_49_111 VGND VGND VPWR VPWR sky130_fd_sc_hd__fill_1
XFILLER_0_64_169 VGND VGND VPWR VPWR sky130_fd_sc_hd__fill_2
XFILLER_0_64_125 VGND VGND VPWR VPWR sky130_ef_sc_hd__decap_12
XFILLER_0_52_309 VGND VGND VPWR VPWR sky130_ef_sc_hd__decap_12
XFILLER_0_45_361 VGND VGND VPWR VPWR sky130_ef_sc_hd__decap_12
XFILLER_0_37_317 VGND VGND VPWR VPWR sky130_ef_sc_hd__decap_12
XFILLER_0_18_29 VGND VGND VPWR VPWR sky130_ef_sc_hd__decap_12
XFILLER_0_55_125 VGND VGND VPWR VPWR sky130_ef_sc_hd__decap_12
XFILLER_0_50_27 VGND VGND VPWR VPWR sky130_fd_sc_hd__fill_1
XFILLER_0_55_169 VGND VGND VPWR VPWR sky130_ef_sc_hd__decap_12
XFILLER_0_11_217 VGND VGND VPWR VPWR sky130_fd_sc_hd__decap_6
XFILLER_0_59_69 VGND VGND VPWR VPWR sky130_ef_sc_hd__decap_12
XFILLER_0_34_309 VGND VGND VPWR VPWR sky130_ef_sc_hd__decap_12
XFILLER_0_6_233 VGND VGND VPWR VPWR sky130_ef_sc_hd__decap_12
XFILLER_0_6_277 VGND VGND VPWR VPWR sky130_ef_sc_hd__decap_12
XFILLER_0_19_317 VGND VGND VPWR VPWR sky130_ef_sc_hd__decap_12
XFILLER_0_24_83 VGND VGND VPWR VPWR sky130_fd_sc_hd__fill_1
XFILLER_0_27_361 VGND VGND VPWR VPWR sky130_ef_sc_hd__decap_12
XFILLER_0_37_125 VGND VGND VPWR VPWR sky130_ef_sc_hd__decap_12
XFILLER_0_52_139 VGND VGND VPWR VPWR sky130_fd_sc_hd__fill_1
XFILLER_0_37_169 VGND VGND VPWR VPWR sky130_ef_sc_hd__decap_12
X_062_ net15 _022_ net16 VGND VGND VPWR VPWR _025_ sky130_fd_sc_hd__or3b_2
XFILLER_0_29_39 VGND VGND VPWR VPWR sky130_ef_sc_hd__decap_12
XFILLER_0_61_15 VGND VGND VPWR VPWR sky130_ef_sc_hd__decap_12
XFILLER_0_0_29 VGND VGND VPWR VPWR sky130_fd_sc_hd__decap_8
XFILLER_0_56_401 VGND VGND VPWR VPWR sky130_fd_sc_hd__decap_6
XFILLER_0_9_27 VGND VGND VPWR VPWR sky130_ef_sc_hd__decap_12
XFILLER_0_16_309 VGND VGND VPWR VPWR sky130_ef_sc_hd__decap_12
XFILLER_0_51_161 VGND VGND VPWR VPWR sky130_fd_sc_hd__decap_6
XFILLER_0_3_225 VGND VGND VPWR VPWR sky130_ef_sc_hd__decap_12
XFILLER_0_10_41 VGND VGND VPWR VPWR sky130_ef_sc_hd__decap_12
XFILLER_0_10_85 VGND VGND VPWR VPWR sky130_ef_sc_hd__decap_12
XFILLER_0_59_261 VGND VGND VPWR VPWR sky130_ef_sc_hd__decap_12
XFILLER_0_35_93 VGND VGND VPWR VPWR sky130_ef_sc_hd__decap_12
XFILLER_0_19_125 VGND VGND VPWR VPWR sky130_ef_sc_hd__decap_12
XFILLER_0_51_81 VGND VGND VPWR VPWR sky130_ef_sc_hd__decap_12
XFILLER_0_34_139 VGND VGND VPWR VPWR sky130_fd_sc_hd__fill_1
XFILLER_0_19_169 VGND VGND VPWR VPWR sky130_ef_sc_hd__decap_12
XFILLER_0_30_389 VGND VGND VPWR VPWR sky130_ef_sc_hd__decap_12
XFILLER_0_30_345 VGND VGND VPWR VPWR sky130_ef_sc_hd__decap_12
XFILLER_0_38_401 VGND VGND VPWR VPWR sky130_fd_sc_hd__decap_6
XTAP_507 VGND VPWR sky130_fd_sc_hd__tapvpwrvgnd_1
XFILLER_0_40_109 VGND VGND VPWR VPWR sky130_ef_sc_hd__decap_12
X_114_ _000_ _016_ VGND VGND VPWR VPWR net18 sky130_fd_sc_hd__dlxtn_1
XFILLER_0_33_161 VGND VGND VPWR VPWR sky130_fd_sc_hd__decap_6
XTAP_529 VGND VPWR sky130_fd_sc_hd__tapvpwrvgnd_1
XFILLER_0_56_15 VGND VGND VPWR VPWR sky130_ef_sc_hd__decap_12
XTAP_518 VGND VPWR sky130_fd_sc_hd__tapvpwrvgnd_1
XFILLER_0_48_209 VGND VGND VPWR VPWR sky130_ef_sc_hd__decap_12
XFILLER_0_56_253 VGND VGND VPWR VPWR sky130_ef_sc_hd__decap_12
XFILLER_0_12_301 VGND VGND VPWR VPWR sky130_fd_sc_hd__decap_6
XFILLER_0_16_139 VGND VGND VPWR VPWR sky130_fd_sc_hd__fill_1
XFILLER_0_21_51 VGND VGND VPWR VPWR sky130_fd_sc_hd__decap_4
XFILLER_0_12_345 VGND VGND VPWR VPWR sky130_ef_sc_hd__decap_12
XFILLER_0_12_389 VGND VGND VPWR VPWR sky130_ef_sc_hd__decap_12
XFILLER_0_34_3 VGND VGND VPWR VPWR sky130_ef_sc_hd__decap_12
XFILLER_0_62_289 VGND VGND VPWR VPWR sky130_ef_sc_hd__decap_12
XFILLER_0_62_245 VGND VGND VPWR VPWR sky130_fd_sc_hd__decap_6
XFILLER_0_30_153 VGND VGND VPWR VPWR sky130_ef_sc_hd__decap_12
XFILLER_0_7_361 VGND VGND VPWR VPWR sky130_ef_sc_hd__decap_12
XFILLER_0_15_161 VGND VGND VPWR VPWR sky130_fd_sc_hd__decap_6
XFILLER_0_22_109 VGND VGND VPWR VPWR sky130_ef_sc_hd__decap_12
XFILLER_0_30_197 VGND VGND VPWR VPWR sky130_ef_sc_hd__decap_12
XFILLER_0_26_29 VGND VGND VPWR VPWR sky130_ef_sc_hd__decap_12
XFILLER_0_53_223 VGND VGND VPWR VPWR sky130_fd_sc_hd__fill_1
XFILLER_0_38_253 VGND VGND VPWR VPWR sky130_ef_sc_hd__decap_12
XTAP_348 VGND VPWR sky130_fd_sc_hd__tapvpwrvgnd_1
XTAP_337 VGND VPWR sky130_fd_sc_hd__tapvpwrvgnd_1
XTAP_304 VGND VPWR sky130_fd_sc_hd__tapvpwrvgnd_1
XTAP_315 VGND VPWR sky130_fd_sc_hd__tapvpwrvgnd_1
XTAP_326 VGND VPWR sky130_fd_sc_hd__tapvpwrvgnd_1
XTAP_359 VGND VPWR sky130_fd_sc_hd__tapvpwrvgnd_1
XFILLER_0_32_83 VGND VGND VPWR VPWR sky130_fd_sc_hd__fill_1
XFILLER_0_29_275 VGND VGND VPWR VPWR sky130_fd_sc_hd__fill_1
XFILLER_0_29_231 VGND VGND VPWR VPWR sky130_fd_sc_hd__fill_1
XFILLER_0_44_289 VGND VGND VPWR VPWR sky130_ef_sc_hd__decap_12
XFILLER_0_44_245 VGND VGND VPWR VPWR sky130_fd_sc_hd__decap_6
XFILLER_0_12_153 VGND VGND VPWR VPWR sky130_ef_sc_hd__decap_12
XFILLER_0_12_197 VGND VGND VPWR VPWR sky130_ef_sc_hd__decap_12
XFILLER_0_35_223 VGND VGND VPWR VPWR sky130_fd_sc_hd__fill_1
Xoutput20 net20 VGND VGND VPWR VPWR alu_control[2] sky130_fd_sc_hd__clkbuf_4
Xoutput31 net31 VGND VGND VPWR VPWR register_w_enable sky130_fd_sc_hd__buf_2
XFILLER_0_53_27 VGND VGND VPWR VPWR sky130_ef_sc_hd__decap_12
XFILLER_0_37_39 VGND VGND VPWR VPWR sky130_ef_sc_hd__decap_12
XFILLER_0_41_237 VGND VGND VPWR VPWR sky130_ef_sc_hd__decap_12
XTAP_178 VGND VPWR sky130_fd_sc_hd__tapvpwrvgnd_1
XTAP_167 VGND VPWR sky130_fd_sc_hd__tapvpwrvgnd_1
XTAP_156 VGND VPWR sky130_fd_sc_hd__tapvpwrvgnd_1
XTAP_145 VGND VPWR sky130_fd_sc_hd__tapvpwrvgnd_1
XTAP_134 VGND VPWR sky130_fd_sc_hd__tapvpwrvgnd_1
XTAP_189 VGND VPWR sky130_fd_sc_hd__tapvpwrvgnd_1
XFILLER_0_49_337 VGND VGND VPWR VPWR sky130_ef_sc_hd__decap_12
XFILLER_0_64_307 VGND VGND VPWR VPWR sky130_fd_sc_hd__fill_1
XFILLER_0_43_93 VGND VGND VPWR VPWR sky130_ef_sc_hd__decap_12
XFILLER_0_17_223 VGND VGND VPWR VPWR sky130_fd_sc_hd__fill_1
XFILLER_0_7_93 VGND VGND VPWR VPWR sky130_ef_sc_hd__decap_12
XFILLER_0_55_329 VGND VGND VPWR VPWR sky130_fd_sc_hd__decap_6
XFILLER_0_63_373 VGND VGND VPWR VPWR sky130_ef_sc_hd__decap_12
XFILLER_0_2_109 VGND VGND VPWR VPWR sky130_ef_sc_hd__decap_12
XFILLER_0_23_237 VGND VGND VPWR VPWR sky130_ef_sc_hd__decap_12
XFILLER_0_48_27 VGND VGND VPWR VPWR sky130_fd_sc_hd__fill_1
XFILLER_0_58_189 VGND VGND VPWR VPWR sky130_fd_sc_hd__decap_6
XFILLER_0_46_307 VGND VGND VPWR VPWR sky130_fd_sc_hd__fill_1
XFILLER_0_49_167 VGND VGND VPWR VPWR sky130_fd_sc_hd__fill_1
XFILLER_0_37_329 VGND VGND VPWR VPWR sky130_fd_sc_hd__decap_6
XFILLER_0_64_137 VGND VGND VPWR VPWR sky130_fd_sc_hd__decap_3
XFILLER_0_60_365 VGND VGND VPWR VPWR sky130_ef_sc_hd__decap_12
XFILLER_0_60_321 VGND VGND VPWR VPWR sky130_ef_sc_hd__decap_12
XFILLER_0_45_373 VGND VGND VPWR VPWR sky130_ef_sc_hd__decap_12
XFILLER_0_13_281 VGND VGND VPWR VPWR sky130_ef_sc_hd__decap_12
XFILLER_0_34_29 VGND VGND VPWR VPWR sky130_ef_sc_hd__decap_12
XFILLER_0_55_137 VGND VGND VPWR VPWR sky130_ef_sc_hd__decap_12
XFILLER_0_63_181 VGND VGND VPWR VPWR sky130_ef_sc_hd__decap_12
XFILLER_0_59_15 VGND VGND VPWR VPWR sky130_ef_sc_hd__decap_12
XFILLER_0_19_329 VGND VGND VPWR VPWR sky130_fd_sc_hd__decap_6
XFILLER_0_42_365 VGND VGND VPWR VPWR sky130_ef_sc_hd__decap_12
XFILLER_0_42_321 VGND VGND VPWR VPWR sky130_ef_sc_hd__decap_12
XFILLER_0_40_83 VGND VGND VPWR VPWR sky130_fd_sc_hd__fill_1
XFILLER_0_6_245 VGND VGND VPWR VPWR sky130_fd_sc_hd__decap_6
XFILLER_0_6_289 VGND VGND VPWR VPWR sky130_ef_sc_hd__decap_12
XFILLER_0_27_373 VGND VGND VPWR VPWR sky130_ef_sc_hd__decap_12
XFILLER_0_49_81 VGND VGND VPWR VPWR sky130_ef_sc_hd__decap_12
XFILLER_0_10_251 VGND VGND VPWR VPWR sky130_fd_sc_hd__fill_1
XFILLER_0_4_83 VGND VGND VPWR VPWR sky130_fd_sc_hd__fill_1
XFILLER_0_37_137 VGND VGND VPWR VPWR sky130_ef_sc_hd__decap_12
XFILLER_0_60_195 VGND VGND VPWR VPWR sky130_fd_sc_hd__fill_1
XFILLER_0_45_181 VGND VGND VPWR VPWR sky130_ef_sc_hd__decap_12
X_061_ _023_ VGND VGND VPWR VPWR _024_ sky130_fd_sc_hd__clkbuf_2
XFILLER_0_61_27 VGND VGND VPWR VPWR sky130_ef_sc_hd__decap_12
XFILLER_0_9_39 VGND VGND VPWR VPWR sky130_ef_sc_hd__decap_12
XFILLER_0_24_321 VGND VGND VPWR VPWR sky130_ef_sc_hd__decap_12
XFILLER_0_3_237 VGND VGND VPWR VPWR sky130_ef_sc_hd__decap_12
XFILLER_0_10_53 VGND VGND VPWR VPWR sky130_ef_sc_hd__decap_12
XFILLER_0_10_97 VGND VGND VPWR VPWR sky130_ef_sc_hd__decap_12
XFILLER_0_24_365 VGND VGND VPWR VPWR sky130_ef_sc_hd__decap_12
XFILLER_0_19_51 VGND VGND VPWR VPWR sky130_fd_sc_hd__decap_4
XFILLER_0_59_273 VGND VGND VPWR VPWR sky130_fd_sc_hd__decap_6
XFILLER_0_19_137 VGND VGND VPWR VPWR sky130_ef_sc_hd__decap_12
XFILLER_0_51_93 VGND VGND VPWR VPWR sky130_ef_sc_hd__decap_12
XFILLER_0_42_195 VGND VGND VPWR VPWR sky130_fd_sc_hd__fill_1
XFILLER_0_27_181 VGND VGND VPWR VPWR sky130_ef_sc_hd__decap_12
XFILLER_0_30_357 VGND VGND VPWR VPWR sky130_fd_sc_hd__decap_6
XFILLER_0_53_405 VGND VGND VPWR VPWR sky130_fd_sc_hd__fill_2
X_113_ _011_ _015_ VGND VGND VPWR VPWR net29 sky130_fd_sc_hd__dlxtn_1
XTAP_519 VGND VPWR sky130_fd_sc_hd__tapvpwrvgnd_1
XTAP_508 VGND VPWR sky130_fd_sc_hd__tapvpwrvgnd_1
XFILLER_0_21_335 VGND VGND VPWR VPWR sky130_fd_sc_hd__fill_1
XFILLER_0_56_27 VGND VGND VPWR VPWR sky130_fd_sc_hd__fill_1
XFILLER_0_56_265 VGND VGND VPWR VPWR sky130_ef_sc_hd__decap_12
XFILLER_0_56_221 VGND VGND VPWR VPWR sky130_ef_sc_hd__decap_12
XFILLER_0_8_307 VGND VGND VPWR VPWR sky130_fd_sc_hd__fill_1
XFILLER_0_24_195 VGND VGND VPWR VPWR sky130_fd_sc_hd__fill_1
XFILLER_0_12_357 VGND VGND VPWR VPWR sky130_fd_sc_hd__decap_6
XFILLER_0_1_51 VGND VGND VPWR VPWR sky130_fd_sc_hd__decap_4
XFILLER_0_27_3 VGND VGND VPWR VPWR sky130_ef_sc_hd__decap_12
XFILLER_0_7_373 VGND VGND VPWR VPWR sky130_ef_sc_hd__decap_12
XFILLER_0_30_165 VGND VGND VPWR VPWR sky130_ef_sc_hd__decap_12
XFILLER_0_30_121 VGND VGND VPWR VPWR sky130_ef_sc_hd__decap_12
XFILLER_0_42_29 VGND VGND VPWR VPWR sky130_ef_sc_hd__decap_12
XFILLER_0_38_265 VGND VGND VPWR VPWR sky130_ef_sc_hd__decap_12
XFILLER_0_38_221 VGND VGND VPWR VPWR sky130_ef_sc_hd__decap_12
XFILLER_0_53_279 VGND VGND VPWR VPWR sky130_fd_sc_hd__fill_1
XTAP_349 VGND VPWR sky130_fd_sc_hd__tapvpwrvgnd_1
XTAP_338 VGND VPWR sky130_fd_sc_hd__tapvpwrvgnd_1
XFILLER_0_6_29 VGND VGND VPWR VPWR sky130_ef_sc_hd__decap_12
XTAP_305 VGND VPWR sky130_fd_sc_hd__tapvpwrvgnd_1
XTAP_316 VGND VPWR sky130_fd_sc_hd__tapvpwrvgnd_1
XTAP_327 VGND VPWR sky130_fd_sc_hd__tapvpwrvgnd_1
XFILLER_0_16_41 VGND VGND VPWR VPWR sky130_ef_sc_hd__decap_12
XFILLER_0_16_85 VGND VGND VPWR VPWR sky130_ef_sc_hd__decap_12
XFILLER_0_17_405 VGND VGND VPWR VPWR sky130_fd_sc_hd__fill_2
XFILLER_0_4_365 VGND VGND VPWR VPWR sky130_ef_sc_hd__decap_12
XFILLER_0_4_321 VGND VGND VPWR VPWR sky130_ef_sc_hd__decap_12
XFILLER_0_12_121 VGND VGND VPWR VPWR sky130_ef_sc_hd__decap_12
XFILLER_0_12_165 VGND VGND VPWR VPWR sky130_ef_sc_hd__decap_12
XFILLER_0_57_81 VGND VGND VPWR VPWR sky130_ef_sc_hd__decap_12
XFILLER_0_7_181 VGND VGND VPWR VPWR sky130_ef_sc_hd__decap_12
Xoutput21 net21 VGND VGND VPWR VPWR alu_control[3] sky130_fd_sc_hd__buf_2
XFILLER_0_53_39 VGND VGND VPWR VPWR sky130_ef_sc_hd__decap_12
XFILLER_0_41_249 VGND VGND VPWR VPWR sky130_ef_sc_hd__decap_12
XFILLER_0_41_205 VGND VGND VPWR VPWR sky130_ef_sc_hd__decap_12
XFILLER_0_1_335 VGND VGND VPWR VPWR sky130_fd_sc_hd__fill_1
XTAP_179 VGND VPWR sky130_fd_sc_hd__tapvpwrvgnd_1
XTAP_168 VGND VPWR sky130_fd_sc_hd__tapvpwrvgnd_1
XTAP_157 VGND VPWR sky130_fd_sc_hd__tapvpwrvgnd_1
XTAP_135 VGND VPWR sky130_fd_sc_hd__tapvpwrvgnd_1
XTAP_146 VGND VPWR sky130_fd_sc_hd__tapvpwrvgnd_1
XFILLER_0_27_51 VGND VGND VPWR VPWR sky130_fd_sc_hd__decap_4
XFILLER_0_49_349 VGND VGND VPWR VPWR sky130_ef_sc_hd__decap_12
XFILLER_0_49_305 VGND VGND VPWR VPWR sky130_ef_sc_hd__decap_12
XFILLER_0_57_393 VGND VGND VPWR VPWR sky130_ef_sc_hd__decap_12
XFILLER_0_17_279 VGND VGND VPWR VPWR sky130_fd_sc_hd__fill_1
XFILLER_0_4_195 VGND VGND VPWR VPWR sky130_fd_sc_hd__fill_1
XFILLER_0_63_385 VGND VGND VPWR VPWR sky130_fd_sc_hd__decap_6
XFILLER_0_23_205 VGND VGND VPWR VPWR sky130_ef_sc_hd__decap_12
XFILLER_0_23_249 VGND VGND VPWR VPWR sky130_ef_sc_hd__decap_12
XFILLER_0_64_16 VGND VGND VPWR VPWR sky130_ef_sc_hd__decap_12
XFILLER_0_54_363 VGND VGND VPWR VPWR sky130_fd_sc_hd__fill_1
XFILLER_0_39_393 VGND VGND VPWR VPWR sky130_ef_sc_hd__decap_12
XFILLER_0_38_83 VGND VGND VPWR VPWR sky130_fd_sc_hd__fill_1
XFILLER_0_49_113 VGND VGND VPWR VPWR sky130_ef_sc_hd__decap_12
XFILLER_0_60_377 VGND VGND VPWR VPWR sky130_ef_sc_hd__decap_12
XFILLER_0_60_333 VGND VGND VPWR VPWR sky130_ef_sc_hd__decap_12
XFILLER_0_45_385 VGND VGND VPWR VPWR sky130_fd_sc_hd__decap_6
XFILLER_0_13_293 VGND VGND VPWR VPWR sky130_ef_sc_hd__decap_12
XFILLER_0_55_149 VGND VGND VPWR VPWR sky130_ef_sc_hd__decap_12
XFILLER_0_55_105 VGND VGND VPWR VPWR sky130_fd_sc_hd__decap_6
XFILLER_0_50_29 VGND VGND VPWR VPWR sky130_ef_sc_hd__decap_12
XFILLER_0_36_363 VGND VGND VPWR VPWR sky130_fd_sc_hd__fill_1
XFILLER_0_63_193 VGND VGND VPWR VPWR sky130_ef_sc_hd__decap_12
XFILLER_0_59_27 VGND VGND VPWR VPWR sky130_ef_sc_hd__decap_12
XFILLER_0_24_41 VGND VGND VPWR VPWR sky130_ef_sc_hd__decap_12
XFILLER_0_24_85 VGND VGND VPWR VPWR sky130_ef_sc_hd__decap_12
XFILLER_0_42_377 VGND VGND VPWR VPWR sky130_ef_sc_hd__decap_12
XFILLER_0_42_333 VGND VGND VPWR VPWR sky130_ef_sc_hd__decap_12
XFILLER_0_27_385 VGND VGND VPWR VPWR sky130_fd_sc_hd__decap_6
XFILLER_0_57_3 VGND VGND VPWR VPWR sky130_ef_sc_hd__decap_12
XFILLER_0_49_93 VGND VGND VPWR VPWR sky130_ef_sc_hd__decap_12
XFILLER_0_37_149 VGND VGND VPWR VPWR sky130_ef_sc_hd__decap_12
XFILLER_0_37_105 VGND VGND VPWR VPWR sky130_fd_sc_hd__decap_6
XFILLER_0_18_363 VGND VGND VPWR VPWR sky130_fd_sc_hd__fill_1
XFILLER_0_60_141 VGND VGND VPWR VPWR sky130_ef_sc_hd__decap_12
XFILLER_0_45_193 VGND VGND VPWR VPWR sky130_ef_sc_hd__decap_12
X_060_ net17 _022_ VGND VGND VPWR VPWR _023_ sky130_fd_sc_hd__or2_1
XFILLER_0_45_18 VGND VGND VPWR VPWR sky130_ef_sc_hd__decap_12
XFILLER_0_61_39 VGND VGND VPWR VPWR sky130_ef_sc_hd__decap_12
XFILLER_0_3_249 VGND VGND VPWR VPWR sky130_ef_sc_hd__decap_12
XFILLER_0_3_205 VGND VGND VPWR VPWR sky130_ef_sc_hd__decap_12
XFILLER_0_24_333 VGND VGND VPWR VPWR sky130_ef_sc_hd__decap_12
XFILLER_0_24_377 VGND VGND VPWR VPWR sky130_ef_sc_hd__decap_12
XFILLER_0_10_65 VGND VGND VPWR VPWR sky130_ef_sc_hd__decap_12
XFILLER_0_19_105 VGND VGND VPWR VPWR sky130_fd_sc_hd__decap_6
XFILLER_0_19_149 VGND VGND VPWR VPWR sky130_ef_sc_hd__decap_12
XFILLER_0_42_141 VGND VGND VPWR VPWR sky130_ef_sc_hd__decap_12
XFILLER_0_27_193 VGND VGND VPWR VPWR sky130_ef_sc_hd__decap_12
XFILLER_0_25_108 VGND VGND VPWR VPWR sky130_fd_sc_hd__decap_4
X_112_ _013_ _014_ VGND VGND VPWR VPWR net31 sky130_fd_sc_hd__dlxtn_1
XTAP_509 VGND VPWR sky130_fd_sc_hd__tapvpwrvgnd_1
XFILLER_0_56_277 VGND VGND VPWR VPWR sky130_ef_sc_hd__decap_12
XFILLER_0_56_233 VGND VGND VPWR VPWR sky130_ef_sc_hd__decap_12
XFILLER_0_24_141 VGND VGND VPWR VPWR sky130_ef_sc_hd__decap_12
XFILLER_0_46_83 VGND VGND VPWR VPWR sky130_fd_sc_hd__fill_1
XFILLER_0_7_385 VGND VGND VPWR VPWR sky130_fd_sc_hd__decap_6
XFILLER_0_30_177 VGND VGND VPWR VPWR sky130_ef_sc_hd__decap_12
XFILLER_0_30_133 VGND VGND VPWR VPWR sky130_fd_sc_hd__decap_6
XFILLER_0_11_391 VGND VGND VPWR VPWR sky130_fd_sc_hd__fill_1
XFILLER_0_38_277 VGND VGND VPWR VPWR sky130_ef_sc_hd__decap_12
XFILLER_0_38_233 VGND VGND VPWR VPWR sky130_ef_sc_hd__decap_12
XFILLER_0_53_225 VGND VGND VPWR VPWR sky130_ef_sc_hd__decap_12
XFILLER_0_21_111 VGND VGND VPWR VPWR sky130_fd_sc_hd__fill_1
XTAP_339 VGND VPWR sky130_fd_sc_hd__tapvpwrvgnd_1
XTAP_306 VGND VPWR sky130_fd_sc_hd__tapvpwrvgnd_1
XTAP_317 VGND VPWR sky130_fd_sc_hd__tapvpwrvgnd_1
XTAP_328 VGND VPWR sky130_fd_sc_hd__tapvpwrvgnd_1
XFILLER_0_16_53 VGND VGND VPWR VPWR sky130_ef_sc_hd__decap_12
XFILLER_0_16_97 VGND VGND VPWR VPWR sky130_ef_sc_hd__decap_12
XFILLER_0_32_85 VGND VGND VPWR VPWR sky130_ef_sc_hd__decap_12
XFILLER_0_32_41 VGND VGND VPWR VPWR sky130_ef_sc_hd__decap_12
XFILLER_0_29_244 VGND VGND VPWR VPWR sky130_fd_sc_hd__fill_1
XFILLER_0_4_333 VGND VGND VPWR VPWR sky130_ef_sc_hd__decap_12
XFILLER_0_4_377 VGND VGND VPWR VPWR sky130_ef_sc_hd__decap_12
XFILLER_0_12_133 VGND VGND VPWR VPWR sky130_fd_sc_hd__decap_6
XFILLER_0_12_177 VGND VGND VPWR VPWR sky130_ef_sc_hd__decap_12
XFILLER_0_57_93 VGND VGND VPWR VPWR sky130_ef_sc_hd__decap_12
XFILLER_0_35_225 VGND VGND VPWR VPWR sky130_ef_sc_hd__decap_12
XFILLER_0_7_193 VGND VGND VPWR VPWR sky130_ef_sc_hd__decap_12
Xoutput22 net22 VGND VGND VPWR VPWR alu_mux_in sky130_fd_sc_hd__clkbuf_4
XFILLER_0_9_3 VGND VGND VPWR VPWR sky130_ef_sc_hd__decap_12
XFILLER_0_41_217 VGND VGND VPWR VPWR sky130_fd_sc_hd__decap_6
XFILLER_0_34_291 VGND VGND VPWR VPWR sky130_ef_sc_hd__decap_12
XTAP_169 VGND VPWR sky130_fd_sc_hd__tapvpwrvgnd_1
XTAP_158 VGND VPWR sky130_fd_sc_hd__tapvpwrvgnd_1
XTAP_136 VGND VPWR sky130_fd_sc_hd__tapvpwrvgnd_1
XTAP_147 VGND VPWR sky130_fd_sc_hd__tapvpwrvgnd_1
XFILLER_0_64_309 VGND VGND VPWR VPWR sky130_ef_sc_hd__decap_12
XFILLER_0_57_361 VGND VGND VPWR VPWR sky130_ef_sc_hd__decap_12
XFILLER_0_49_317 VGND VGND VPWR VPWR sky130_ef_sc_hd__decap_12
XFILLER_0_43_51 VGND VGND VPWR VPWR sky130_fd_sc_hd__decap_4
XFILLER_0_4_141 VGND VGND VPWR VPWR sky130_ef_sc_hd__decap_12
XFILLER_0_17_225 VGND VGND VPWR VPWR sky130_ef_sc_hd__decap_12
XFILLER_0_7_51 VGND VGND VPWR VPWR sky130_fd_sc_hd__decap_4
XFILLER_0_0_391 VGND VGND VPWR VPWR sky130_fd_sc_hd__fill_1
XFILLER_0_48_29 VGND VGND VPWR VPWR sky130_ef_sc_hd__decap_12
XFILLER_0_23_217 VGND VGND VPWR VPWR sky130_fd_sc_hd__decap_6
XFILLER_0_46_309 VGND VGND VPWR VPWR sky130_ef_sc_hd__decap_12
XFILLER_0_39_361 VGND VGND VPWR VPWR sky130_ef_sc_hd__decap_12
XFILLER_0_1_111 VGND VGND VPWR VPWR sky130_fd_sc_hd__fill_1
XFILLER_0_10_401 VGND VGND VPWR VPWR sky130_fd_sc_hd__decap_6
XFILLER_0_54_83 VGND VGND VPWR VPWR sky130_fd_sc_hd__fill_1
XFILLER_0_49_169 VGND VGND VPWR VPWR sky130_ef_sc_hd__decap_12
XFILLER_0_49_125 VGND VGND VPWR VPWR sky130_ef_sc_hd__decap_12
XFILLER_0_60_389 VGND VGND VPWR VPWR sky130_ef_sc_hd__decap_12
XFILLER_0_60_345 VGND VGND VPWR VPWR sky130_ef_sc_hd__decap_12
XFILLER_0_60_301 VGND VGND VPWR VPWR sky130_fd_sc_hd__decap_6
XFILLER_0_13_261 VGND VGND VPWR VPWR sky130_ef_sc_hd__decap_12
XFILLER_0_20_209 VGND VGND VPWR VPWR sky130_ef_sc_hd__decap_12
XFILLER_0_28_309 VGND VGND VPWR VPWR sky130_ef_sc_hd__decap_12
XFILLER_0_63_161 VGND VGND VPWR VPWR sky130_fd_sc_hd__decap_6
XFILLER_0_59_39 VGND VGND VPWR VPWR sky130_ef_sc_hd__decap_12
XFILLER_0_46_139 VGND VGND VPWR VPWR sky130_fd_sc_hd__fill_1
XFILLER_0_24_53 VGND VGND VPWR VPWR sky130_ef_sc_hd__decap_12
XFILLER_0_24_97 VGND VGND VPWR VPWR sky130_ef_sc_hd__decap_12
XFILLER_0_54_161 VGND VGND VPWR VPWR sky130_fd_sc_hd__fill_2
XFILLER_0_42_389 VGND VGND VPWR VPWR sky130_ef_sc_hd__decap_12
XFILLER_0_42_345 VGND VGND VPWR VPWR sky130_ef_sc_hd__decap_12
XFILLER_0_42_301 VGND VGND VPWR VPWR sky130_fd_sc_hd__decap_6
XFILLER_0_40_85 VGND VGND VPWR VPWR sky130_ef_sc_hd__decap_12
XFILLER_0_40_41 VGND VGND VPWR VPWR sky130_ef_sc_hd__decap_12
XFILLER_0_4_85 VGND VGND VPWR VPWR sky130_ef_sc_hd__decap_12
XFILLER_0_4_41 VGND VGND VPWR VPWR sky130_ef_sc_hd__decap_12
XFILLER_0_10_253 VGND VGND VPWR VPWR sky130_ef_sc_hd__decap_12
XFILLER_0_52_109 VGND VGND VPWR VPWR sky130_ef_sc_hd__decap_12
XFILLER_0_45_161 VGND VGND VPWR VPWR sky130_fd_sc_hd__decap_6
XFILLER_0_60_197 VGND VGND VPWR VPWR sky130_ef_sc_hd__decap_12
XFILLER_0_60_153 VGND VGND VPWR VPWR sky130_ef_sc_hd__decap_12
XFILLER_0_28_139 VGND VGND VPWR VPWR sky130_fd_sc_hd__fill_1
XFILLER_0_3_217 VGND VGND VPWR VPWR sky130_fd_sc_hd__decap_6
XFILLER_0_10_77 VGND VGND VPWR VPWR sky130_fd_sc_hd__decap_6
XFILLER_0_24_345 VGND VGND VPWR VPWR sky130_ef_sc_hd__decap_12
XFILLER_0_24_389 VGND VGND VPWR VPWR sky130_ef_sc_hd__decap_12
XFILLER_0_51_51 VGND VGND VPWR VPWR sky130_fd_sc_hd__decap_4
XFILLER_0_34_109 VGND VGND VPWR VPWR sky130_ef_sc_hd__decap_12
XFILLER_0_27_161 VGND VGND VPWR VPWR sky130_fd_sc_hd__decap_6
XFILLER_0_42_197 VGND VGND VPWR VPWR sky130_ef_sc_hd__decap_12
XFILLER_0_42_153 VGND VGND VPWR VPWR sky130_ef_sc_hd__decap_12
X_111_ net16 net15 _024_ VGND VGND VPWR VPWR _004_ sky130_fd_sc_hd__a21o_1
XFILLER_0_21_337 VGND VGND VPWR VPWR sky130_ef_sc_hd__decap_12
XFILLER_0_56_29 VGND VGND VPWR VPWR sky130_ef_sc_hd__decap_12
XFILLER_0_56_289 VGND VGND VPWR VPWR sky130_ef_sc_hd__decap_12
XFILLER_0_56_245 VGND VGND VPWR VPWR sky130_fd_sc_hd__decap_6
XFILLER_0_8_309 VGND VGND VPWR VPWR sky130_ef_sc_hd__decap_12
XFILLER_0_16_109 VGND VGND VPWR VPWR sky130_ef_sc_hd__decap_12
XFILLER_0_24_153 VGND VGND VPWR VPWR sky130_ef_sc_hd__decap_12
XFILLER_0_24_197 VGND VGND VPWR VPWR sky130_ef_sc_hd__decap_12
XFILLER_0_62_83 VGND VGND VPWR VPWR sky130_fd_sc_hd__fill_1
XFILLER_0_47_223 VGND VGND VPWR VPWR sky130_fd_sc_hd__fill_1
XFILLER_0_30_189 VGND VGND VPWR VPWR sky130_fd_sc_hd__decap_6
XFILLER_0_53_237 VGND VGND VPWR VPWR sky130_ef_sc_hd__decap_12
XFILLER_0_38_289 VGND VGND VPWR VPWR sky130_ef_sc_hd__decap_12
XFILLER_0_38_245 VGND VGND VPWR VPWR sky130_fd_sc_hd__decap_6
XFILLER_0_61_281 VGND VGND VPWR VPWR sky130_ef_sc_hd__decap_12
XFILLER_0_21_167 VGND VGND VPWR VPWR sky130_fd_sc_hd__fill_1
XTAP_307 VGND VPWR sky130_fd_sc_hd__tapvpwrvgnd_1
XTAP_318 VGND VPWR sky130_fd_sc_hd__tapvpwrvgnd_1
XTAP_329 VGND VPWR sky130_fd_sc_hd__tapvpwrvgnd_1
XFILLER_0_29_223 VGND VGND VPWR VPWR sky130_fd_sc_hd__fill_1
XFILLER_0_16_65 VGND VGND VPWR VPWR sky130_ef_sc_hd__decap_12
XFILLER_0_32_97 VGND VGND VPWR VPWR sky130_ef_sc_hd__decap_12
XFILLER_0_32_53 VGND VGND VPWR VPWR sky130_ef_sc_hd__decap_12
XFILLER_0_4_345 VGND VGND VPWR VPWR sky130_ef_sc_hd__decap_12
XFILLER_0_4_301 VGND VGND VPWR VPWR sky130_fd_sc_hd__decap_6
XFILLER_0_8_139 VGND VGND VPWR VPWR sky130_fd_sc_hd__fill_1
XFILLER_0_4_389 VGND VGND VPWR VPWR sky130_ef_sc_hd__decap_12
XFILLER_0_12_189 VGND VGND VPWR VPWR sky130_fd_sc_hd__decap_6
XFILLER_0_32_3 VGND VGND VPWR VPWR sky130_ef_sc_hd__decap_12
XFILLER_0_35_237 VGND VGND VPWR VPWR sky130_ef_sc_hd__decap_12
XFILLER_0_43_281 VGND VGND VPWR VPWR sky130_ef_sc_hd__decap_12
XFILLER_0_7_161 VGND VGND VPWR VPWR sky130_fd_sc_hd__decap_6
Xoutput23 net23 VGND VGND VPWR VPWR alu_mux_out sky130_fd_sc_hd__clkbuf_4
XFILLER_0_58_307 VGND VGND VPWR VPWR sky130_fd_sc_hd__fill_1
XFILLER_0_1_337 VGND VGND VPWR VPWR sky130_ef_sc_hd__decap_12
XTAP_137 VGND VPWR sky130_fd_sc_hd__tapvpwrvgnd_1
XTAP_148 VGND VPWR sky130_fd_sc_hd__tapvpwrvgnd_1
XTAP_159 VGND VPWR sky130_fd_sc_hd__tapvpwrvgnd_1
XFILLER_0_57_373 VGND VGND VPWR VPWR sky130_ef_sc_hd__decap_12
XFILLER_0_49_329 VGND VGND VPWR VPWR sky130_fd_sc_hd__decap_6