* NGSPICE file created from alu.ext - technology: sky130A

* Black-box entry subcircuit for sky130_fd_sc_hd__o21a_1 abstract view
.subckt sky130_fd_sc_hd__o21a_1 A1 A2 B1 VGND VNB VPB VPWR X
.ends

* Black-box entry subcircuit for sky130_ef_sc_hd__decap_12 abstract view
.subckt sky130_ef_sc_hd__decap_12 VGND VNB VPB VPWR
.ends

* Black-box entry subcircuit for sky130_fd_sc_hd__tapvpwrvgnd_1 abstract view
.subckt sky130_fd_sc_hd__tapvpwrvgnd_1 VGND VPWR
.ends

* Black-box entry subcircuit for sky130_fd_sc_hd__or2_1 abstract view
.subckt sky130_fd_sc_hd__or2_1 A B VGND VNB VPB VPWR X
.ends

* Black-box entry subcircuit for sky130_fd_sc_hd__fill_1 abstract view
.subckt sky130_fd_sc_hd__fill_1 VGND VNB VPB VPWR
.ends

* Black-box entry subcircuit for sky130_fd_sc_hd__buf_1 abstract view
.subckt sky130_fd_sc_hd__buf_1 A VGND VNB VPB VPWR X
.ends

* Black-box entry subcircuit for sky130_fd_sc_hd__inv_2 abstract view
.subckt sky130_fd_sc_hd__inv_2 A VGND VNB VPB VPWR Y
.ends

* Black-box entry subcircuit for sky130_fd_sc_hd__a21oi_1 abstract view
.subckt sky130_fd_sc_hd__a21oi_1 A1 A2 B1 VGND VNB VPB VPWR Y
.ends

* Black-box entry subcircuit for sky130_fd_sc_hd__a22o_1 abstract view
.subckt sky130_fd_sc_hd__a22o_1 A1 A2 B1 B2 VGND VNB VPB VPWR X
.ends

* Black-box entry subcircuit for sky130_fd_sc_hd__or3_1 abstract view
.subckt sky130_fd_sc_hd__or3_1 A B C VGND VNB VPB VPWR X
.ends

* Black-box entry subcircuit for sky130_fd_sc_hd__buf_4 abstract view
.subckt sky130_fd_sc_hd__buf_4 A VGND VNB VPB VPWR X
.ends

* Black-box entry subcircuit for sky130_fd_sc_hd__xor2_1 abstract view
.subckt sky130_fd_sc_hd__xor2_1 A B VGND VNB VPB VPWR X
.ends

* Black-box entry subcircuit for sky130_fd_sc_hd__decap_4 abstract view
.subckt sky130_fd_sc_hd__decap_4 VGND VNB VPB VPWR
.ends

* Black-box entry subcircuit for sky130_fd_sc_hd__fill_2 abstract view
.subckt sky130_fd_sc_hd__fill_2 VGND VNB VPB VPWR
.ends

* Black-box entry subcircuit for sky130_fd_sc_hd__decap_8 abstract view
.subckt sky130_fd_sc_hd__decap_8 VGND VNB VPB VPWR
.ends

* Black-box entry subcircuit for sky130_fd_sc_hd__decap_6 abstract view
.subckt sky130_fd_sc_hd__decap_6 VGND VNB VPB VPWR
.ends

* Black-box entry subcircuit for sky130_fd_sc_hd__o21ai_1 abstract view
.subckt sky130_fd_sc_hd__o21ai_1 A1 A2 B1 VGND VNB VPB VPWR Y
.ends

* Black-box entry subcircuit for sky130_fd_sc_hd__and2_1 abstract view
.subckt sky130_fd_sc_hd__and2_1 A B VGND VNB VPB VPWR X
.ends

* Black-box entry subcircuit for sky130_fd_sc_hd__buf_2 abstract view
.subckt sky130_fd_sc_hd__buf_2 A VGND VNB VPB VPWR X
.ends

* Black-box entry subcircuit for sky130_fd_sc_hd__a21o_1 abstract view
.subckt sky130_fd_sc_hd__a21o_1 A1 A2 B1 VGND VNB VPB VPWR X
.ends

* Black-box entry subcircuit for sky130_fd_sc_hd__or2b_1 abstract view
.subckt sky130_fd_sc_hd__or2b_1 A B_N VGND VNB VPB VPWR X
.ends

* Black-box entry subcircuit for sky130_fd_sc_hd__xnor2_2 abstract view
.subckt sky130_fd_sc_hd__xnor2_2 A B VGND VNB VPB VPWR Y
.ends

* Black-box entry subcircuit for sky130_fd_sc_hd__decap_3 abstract view
.subckt sky130_fd_sc_hd__decap_3 VGND VNB VPB VPWR
.ends

* Black-box entry subcircuit for sky130_fd_sc_hd__a311o_1 abstract view
.subckt sky130_fd_sc_hd__a311o_1 A1 A2 A3 B1 C1 VGND VNB VPB VPWR X
.ends

* Black-box entry subcircuit for sky130_fd_sc_hd__mux2_1 abstract view
.subckt sky130_fd_sc_hd__mux2_1 A0 A1 S VGND VNB VPB VPWR X
.ends

* Black-box entry subcircuit for sky130_fd_sc_hd__and3_1 abstract view
.subckt sky130_fd_sc_hd__and3_1 A B C VGND VNB VPB VPWR X
.ends

* Black-box entry subcircuit for sky130_fd_sc_hd__o2bb2a_1 abstract view
.subckt sky130_fd_sc_hd__o2bb2a_1 A1_N A2_N B1 B2 VGND VNB VPB VPWR X
.ends

* Black-box entry subcircuit for sky130_fd_sc_hd__clkbuf_1 abstract view
.subckt sky130_fd_sc_hd__clkbuf_1 A VGND VNB VPB VPWR X
.ends

* Black-box entry subcircuit for sky130_fd_sc_hd__a2111oi_2 abstract view
.subckt sky130_fd_sc_hd__a2111oi_2 A1 A2 B1 C1 D1 VGND VNB VPB VPWR Y
.ends

* Black-box entry subcircuit for sky130_fd_sc_hd__clkbuf_4 abstract view
.subckt sky130_fd_sc_hd__clkbuf_4 A VGND VNB VPB VPWR X
.ends

* Black-box entry subcircuit for sky130_fd_sc_hd__nor2_2 abstract view
.subckt sky130_fd_sc_hd__nor2_2 A B VGND VNB VPB VPWR Y
.ends

* Black-box entry subcircuit for sky130_fd_sc_hd__nor2_1 abstract view
.subckt sky130_fd_sc_hd__nor2_1 A B VGND VNB VPB VPWR Y
.ends

* Black-box entry subcircuit for sky130_fd_sc_hd__nand2_1 abstract view
.subckt sky130_fd_sc_hd__nand2_1 A B VGND VNB VPB VPWR Y
.ends

* Black-box entry subcircuit for sky130_fd_sc_hd__nor3_4 abstract view
.subckt sky130_fd_sc_hd__nor3_4 A B C VGND VNB VPB VPWR Y
.ends

* Black-box entry subcircuit for sky130_fd_sc_hd__nand3b_1 abstract view
.subckt sky130_fd_sc_hd__nand3b_1 A_N B C VGND VNB VPB VPWR Y
.ends

* Black-box entry subcircuit for sky130_fd_sc_hd__nor2_4 abstract view
.subckt sky130_fd_sc_hd__nor2_4 A B VGND VNB VPB VPWR Y
.ends

* Black-box entry subcircuit for sky130_fd_sc_hd__a21bo_1 abstract view
.subckt sky130_fd_sc_hd__a21bo_1 A1 A2 B1_N VGND VNB VPB VPWR X
.ends

* Black-box entry subcircuit for sky130_fd_sc_hd__xor2_2 abstract view
.subckt sky130_fd_sc_hd__xor2_2 A B VGND VNB VPB VPWR X
.ends

* Black-box entry subcircuit for sky130_fd_sc_hd__xnor2_1 abstract view
.subckt sky130_fd_sc_hd__xnor2_1 A B VGND VNB VPB VPWR Y
.ends

* Black-box entry subcircuit for sky130_fd_sc_hd__a22oi_2 abstract view
.subckt sky130_fd_sc_hd__a22oi_2 A1 A2 B1 B2 VGND VNB VPB VPWR Y
.ends

* Black-box entry subcircuit for sky130_fd_sc_hd__mux4_1 abstract view
.subckt sky130_fd_sc_hd__mux4_1 A0 A1 A2 A3 S0 S1 VGND VNB VPB VPWR X
.ends

* Black-box entry subcircuit for sky130_fd_sc_hd__a221oi_2 abstract view
.subckt sky130_fd_sc_hd__a221oi_2 A1 A2 B1 B2 C1 VGND VNB VPB VPWR Y
.ends

* Black-box entry subcircuit for sky130_fd_sc_hd__a21boi_1 abstract view
.subckt sky130_fd_sc_hd__a21boi_1 A1 A2 B1_N VGND VNB VPB VPWR Y
.ends

* Black-box entry subcircuit for sky130_fd_sc_hd__or4_2 abstract view
.subckt sky130_fd_sc_hd__or4_2 A B C D VGND VNB VPB VPWR X
.ends

* Black-box entry subcircuit for sky130_fd_sc_hd__nand4_1 abstract view
.subckt sky130_fd_sc_hd__nand4_1 A B C D VGND VNB VPB VPWR Y
.ends

* Black-box entry subcircuit for sky130_fd_sc_hd__a2111o_1 abstract view
.subckt sky130_fd_sc_hd__a2111o_1 A1 A2 B1 C1 D1 VGND VNB VPB VPWR X
.ends

* Black-box entry subcircuit for sky130_fd_sc_hd__o31a_1 abstract view
.subckt sky130_fd_sc_hd__o31a_1 A1 A2 A3 B1 VGND VNB VPB VPWR X
.ends

* Black-box entry subcircuit for sky130_fd_sc_hd__and2b_1 abstract view
.subckt sky130_fd_sc_hd__and2b_1 A_N B VGND VNB VPB VPWR X
.ends

* Black-box entry subcircuit for sky130_fd_sc_hd__a31o_1 abstract view
.subckt sky130_fd_sc_hd__a31o_1 A1 A2 A3 B1 VGND VNB VPB VPWR X
.ends

* Black-box entry subcircuit for sky130_fd_sc_hd__o22a_1 abstract view
.subckt sky130_fd_sc_hd__o22a_1 A1 A2 B1 B2 VGND VNB VPB VPWR X
.ends

* Black-box entry subcircuit for sky130_fd_sc_hd__o211a_1 abstract view
.subckt sky130_fd_sc_hd__o211a_1 A1 A2 B1 C1 VGND VNB VPB VPWR X
.ends

* Black-box entry subcircuit for sky130_fd_sc_hd__clkinv_4 abstract view
.subckt sky130_fd_sc_hd__clkinv_4 A VGND VNB VPB VPWR Y
.ends

* Black-box entry subcircuit for sky130_fd_sc_hd__o41a_1 abstract view
.subckt sky130_fd_sc_hd__o41a_1 A1 A2 A3 A4 B1 VGND VNB VPB VPWR X
.ends

* Black-box entry subcircuit for sky130_fd_sc_hd__nand3_2 abstract view
.subckt sky130_fd_sc_hd__nand3_2 A B C VGND VNB VPB VPWR Y
.ends

* Black-box entry subcircuit for sky130_fd_sc_hd__and4bb_1 abstract view
.subckt sky130_fd_sc_hd__and4bb_1 A_N B_N C D VGND VNB VPB VPWR X
.ends

* Black-box entry subcircuit for sky130_fd_sc_hd__buf_6 abstract view
.subckt sky130_fd_sc_hd__buf_6 A VGND VNB VPB VPWR X
.ends

* Black-box entry subcircuit for sky130_fd_sc_hd__or4b_2 abstract view
.subckt sky130_fd_sc_hd__or4b_2 A B C D_N VGND VNB VPB VPWR X
.ends

* Black-box entry subcircuit for sky130_fd_sc_hd__xnor2_4 abstract view
.subckt sky130_fd_sc_hd__xnor2_4 A B VGND VNB VPB VPWR Y
.ends

* Black-box entry subcircuit for sky130_fd_sc_hd__a32oi_2 abstract view
.subckt sky130_fd_sc_hd__a32oi_2 A1 A2 A3 B1 B2 VGND VNB VPB VPWR Y
.ends

* Black-box entry subcircuit for sky130_fd_sc_hd__a32o_1 abstract view
.subckt sky130_fd_sc_hd__a32o_1 A1 A2 A3 B1 B2 VGND VNB VPB VPWR X
.ends

* Black-box entry subcircuit for sky130_fd_sc_hd__or4b_4 abstract view
.subckt sky130_fd_sc_hd__or4b_4 A B C D_N VGND VNB VPB VPWR X
.ends

* Black-box entry subcircuit for sky130_fd_sc_hd__or2_2 abstract view
.subckt sky130_fd_sc_hd__or2_2 A B VGND VNB VPB VPWR X
.ends

* Black-box entry subcircuit for sky130_fd_sc_hd__o311a_1 abstract view
.subckt sky130_fd_sc_hd__o311a_1 A1 A2 A3 B1 C1 VGND VNB VPB VPWR X
.ends

* Black-box entry subcircuit for sky130_fd_sc_hd__o31a_2 abstract view
.subckt sky130_fd_sc_hd__o31a_2 A1 A2 A3 B1 VGND VNB VPB VPWR X
.ends

* Black-box entry subcircuit for sky130_fd_sc_hd__o32a_1 abstract view
.subckt sky130_fd_sc_hd__o32a_1 A1 A2 A3 B1 B2 VGND VNB VPB VPWR X
.ends

* Black-box entry subcircuit for sky130_fd_sc_hd__a211o_1 abstract view
.subckt sky130_fd_sc_hd__a211o_1 A1 A2 B1 C1 VGND VNB VPB VPWR X
.ends

* Black-box entry subcircuit for sky130_fd_sc_hd__nand2_2 abstract view
.subckt sky130_fd_sc_hd__nand2_2 A B VGND VNB VPB VPWR Y
.ends

* Black-box entry subcircuit for sky130_fd_sc_hd__or4_4 abstract view
.subckt sky130_fd_sc_hd__or4_4 A B C D VGND VNB VPB VPWR X
.ends

* Black-box entry subcircuit for sky130_fd_sc_hd__or3_4 abstract view
.subckt sky130_fd_sc_hd__or3_4 A B C VGND VNB VPB VPWR X
.ends

* Black-box entry subcircuit for sky130_fd_sc_hd__o22ai_1 abstract view
.subckt sky130_fd_sc_hd__o22ai_1 A1 A2 B1 B2 VGND VNB VPB VPWR Y
.ends

* Black-box entry subcircuit for sky130_fd_sc_hd__or4b_1 abstract view
.subckt sky130_fd_sc_hd__or4b_1 A B C D_N VGND VNB VPB VPWR X
.ends

* Black-box entry subcircuit for sky130_fd_sc_hd__and2_2 abstract view
.subckt sky130_fd_sc_hd__and2_2 A B VGND VNB VPB VPWR X
.ends

* Black-box entry subcircuit for sky130_fd_sc_hd__a2111oi_4 abstract view
.subckt sky130_fd_sc_hd__a2111oi_4 A1 A2 B1 C1 D1 VGND VNB VPB VPWR Y
.ends

* Black-box entry subcircuit for sky130_fd_sc_hd__o21ba_1 abstract view
.subckt sky130_fd_sc_hd__o21ba_1 A1 A2 B1_N VGND VNB VPB VPWR X
.ends

* Black-box entry subcircuit for sky130_fd_sc_hd__or4_1 abstract view
.subckt sky130_fd_sc_hd__or4_1 A B C D VGND VNB VPB VPWR X
.ends

* Black-box entry subcircuit for sky130_fd_sc_hd__or4bb_4 abstract view
.subckt sky130_fd_sc_hd__or4bb_4 A B C_N D_N VGND VNB VPB VPWR X
.ends

* Black-box entry subcircuit for sky130_fd_sc_hd__and3b_1 abstract view
.subckt sky130_fd_sc_hd__and3b_1 A_N B C VGND VNB VPB VPWR X
.ends

* Black-box entry subcircuit for sky130_fd_sc_hd__o2111ai_4 abstract view
.subckt sky130_fd_sc_hd__o2111ai_4 A1 A2 B1 C1 D1 VGND VNB VPB VPWR Y
.ends

* Black-box entry subcircuit for sky130_fd_sc_hd__and4_1 abstract view
.subckt sky130_fd_sc_hd__and4_1 A B C D VGND VNB VPB VPWR X
.ends

* Black-box entry subcircuit for sky130_fd_sc_hd__a221o_1 abstract view
.subckt sky130_fd_sc_hd__a221o_1 A1 A2 B1 B2 C1 VGND VNB VPB VPWR X
.ends

* Black-box entry subcircuit for sky130_fd_sc_hd__o21ai_2 abstract view
.subckt sky130_fd_sc_hd__o21ai_2 A1 A2 B1 VGND VNB VPB VPWR Y
.ends

* Black-box entry subcircuit for sky130_fd_sc_hd__nor3_1 abstract view
.subckt sky130_fd_sc_hd__nor3_1 A B C VGND VNB VPB VPWR Y
.ends

* Black-box entry subcircuit for sky130_fd_sc_hd__o221a_1 abstract view
.subckt sky130_fd_sc_hd__o221a_1 A1 A2 B1 B2 C1 VGND VNB VPB VPWR X
.ends

* Black-box entry subcircuit for sky130_fd_sc_hd__a211oi_1 abstract view
.subckt sky130_fd_sc_hd__a211oi_1 A1 A2 B1 C1 VGND VNB VPB VPWR Y
.ends

* Black-box entry subcircuit for sky130_fd_sc_hd__o21ai_4 abstract view
.subckt sky130_fd_sc_hd__o21ai_4 A1 A2 B1 VGND VNB VPB VPWR Y
.ends

* Black-box entry subcircuit for sky130_fd_sc_hd__clkbuf_2 abstract view
.subckt sky130_fd_sc_hd__clkbuf_2 A VGND VNB VPB VPWR X
.ends

* Black-box entry subcircuit for sky130_fd_sc_hd__or3b_1 abstract view
.subckt sky130_fd_sc_hd__or3b_1 A B C_N VGND VNB VPB VPWR X
.ends

* Black-box entry subcircuit for sky130_fd_sc_hd__a21oi_2 abstract view
.subckt sky130_fd_sc_hd__a21oi_2 A1 A2 B1 VGND VNB VPB VPWR Y
.ends

* Black-box entry subcircuit for sky130_fd_sc_hd__o21bai_1 abstract view
.subckt sky130_fd_sc_hd__o21bai_1 A1 A2 B1_N VGND VNB VPB VPWR Y
.ends

* Black-box entry subcircuit for sky130_fd_sc_hd__o31ai_2 abstract view
.subckt sky130_fd_sc_hd__o31ai_2 A1 A2 A3 B1 VGND VNB VPB VPWR Y
.ends

* Black-box entry subcircuit for sky130_fd_sc_hd__dlymetal6s2s_1 abstract view
.subckt sky130_fd_sc_hd__dlymetal6s2s_1 A VGND VNB VPB VPWR X
.ends

* Black-box entry subcircuit for sky130_fd_sc_hd__or3_2 abstract view
.subckt sky130_fd_sc_hd__or3_2 A B C VGND VNB VPB VPWR X
.ends

* Black-box entry subcircuit for sky130_fd_sc_hd__or3b_4 abstract view
.subckt sky130_fd_sc_hd__or3b_4 A B C_N VGND VNB VPB VPWR X
.ends

* Black-box entry subcircuit for sky130_fd_sc_hd__a22oi_1 abstract view
.subckt sky130_fd_sc_hd__a22oi_1 A1 A2 B1 B2 VGND VNB VPB VPWR Y
.ends

* Black-box entry subcircuit for sky130_fd_sc_hd__mux4_2 abstract view
.subckt sky130_fd_sc_hd__mux4_2 A0 A1 A2 A3 S0 S1 VGND VNB VPB VPWR X
.ends

* Black-box entry subcircuit for sky130_fd_sc_hd__a2bb2o_1 abstract view
.subckt sky130_fd_sc_hd__a2bb2o_1 A1_N A2_N B1 B2 VGND VNB VPB VPWR X
.ends

* Black-box entry subcircuit for sky130_fd_sc_hd__or3b_2 abstract view
.subckt sky130_fd_sc_hd__or3b_2 A B C_N VGND VNB VPB VPWR X
.ends

* Black-box entry subcircuit for sky130_fd_sc_hd__nand3_1 abstract view
.subckt sky130_fd_sc_hd__nand3_1 A B C VGND VNB VPB VPWR Y
.ends

* Black-box entry subcircuit for sky130_fd_sc_hd__a41o_1 abstract view
.subckt sky130_fd_sc_hd__a41o_1 A1 A2 A3 A4 B1 VGND VNB VPB VPWR X
.ends

* Black-box entry subcircuit for sky130_fd_sc_hd__o211ai_1 abstract view
.subckt sky130_fd_sc_hd__o211ai_1 A1 A2 B1 C1 VGND VNB VPB VPWR Y
.ends

* Black-box entry subcircuit for sky130_fd_sc_hd__nand4_2 abstract view
.subckt sky130_fd_sc_hd__nand4_2 A B C D VGND VNB VPB VPWR Y
.ends

* Black-box entry subcircuit for sky130_fd_sc_hd__and3_2 abstract view
.subckt sky130_fd_sc_hd__and3_2 A B C VGND VNB VPB VPWR X
.ends

* Black-box entry subcircuit for sky130_fd_sc_hd__and4b_1 abstract view
.subckt sky130_fd_sc_hd__and4b_1 A_N B C D VGND VNB VPB VPWR X
.ends

* Black-box entry subcircuit for sky130_fd_sc_hd__a31o_2 abstract view
.subckt sky130_fd_sc_hd__a31o_2 A1 A2 A3 B1 VGND VNB VPB VPWR X
.ends

* Black-box entry subcircuit for sky130_fd_sc_hd__mux2_2 abstract view
.subckt sky130_fd_sc_hd__mux2_2 A0 A1 S VGND VNB VPB VPWR X
.ends

* Black-box entry subcircuit for sky130_fd_sc_hd__a22oi_4 abstract view
.subckt sky130_fd_sc_hd__a22oi_4 A1 A2 B1 B2 VGND VNB VPB VPWR Y
.ends

* Black-box entry subcircuit for sky130_fd_sc_hd__nand2b_2 abstract view
.subckt sky130_fd_sc_hd__nand2b_2 A_N B VGND VNB VPB VPWR Y
.ends

* Black-box entry subcircuit for sky130_fd_sc_hd__nor3b_1 abstract view
.subckt sky130_fd_sc_hd__nor3b_1 A B C_N VGND VNB VPB VPWR Y
.ends

* Black-box entry subcircuit for sky130_fd_sc_hd__a21oi_4 abstract view
.subckt sky130_fd_sc_hd__a21oi_4 A1 A2 B1 VGND VNB VPB VPWR Y
.ends

* Black-box entry subcircuit for sky130_fd_sc_hd__o31ai_1 abstract view
.subckt sky130_fd_sc_hd__o31ai_1 A1 A2 A3 B1 VGND VNB VPB VPWR Y
.ends

* Black-box entry subcircuit for sky130_fd_sc_hd__o221ai_4 abstract view
.subckt sky130_fd_sc_hd__o221ai_4 A1 A2 B1 B2 C1 VGND VNB VPB VPWR Y
.ends

* Black-box entry subcircuit for sky130_fd_sc_hd__o21bai_2 abstract view
.subckt sky130_fd_sc_hd__o21bai_2 A1 A2 B1_N VGND VNB VPB VPWR Y
.ends

* Black-box entry subcircuit for sky130_fd_sc_hd__nand4b_4 abstract view
.subckt sky130_fd_sc_hd__nand4b_4 A_N B C D VGND VNB VPB VPWR Y
.ends

* Black-box entry subcircuit for sky130_fd_sc_hd__diode_2 abstract view
.subckt sky130_fd_sc_hd__diode_2 DIODE VGND VNB VPB VPWR
.ends

* Black-box entry subcircuit for sky130_fd_sc_hd__dlygate4sd1_1 abstract view
.subckt sky130_fd_sc_hd__dlygate4sd1_1 A VGND VNB VPB VPWR X
.ends

* Black-box entry subcircuit for sky130_fd_sc_hd__a311oi_4 abstract view
.subckt sky130_fd_sc_hd__a311oi_4 A1 A2 A3 B1 C1 VGND VNB VPB VPWR Y
.ends

.subckt alu VGND VPWR control[0] control[1] control[2] control[3] data_in1[0] data_in1[10]
+ data_in1[11] data_in1[12] data_in1[13] data_in1[14] data_in1[15] data_in1[16] data_in1[17]
+ data_in1[18] data_in1[19] data_in1[1] data_in1[20] data_in1[21] data_in1[22] data_in1[23]
+ data_in1[24] data_in1[25] data_in1[26] data_in1[27] data_in1[28] data_in1[29] data_in1[2]
+ data_in1[30] data_in1[31] data_in1[3] data_in1[4] data_in1[5] data_in1[6] data_in1[7]
+ data_in1[8] data_in1[9] data_in2[0] data_in2[10] data_in2[11] data_in2[12] data_in2[13]
+ data_in2[14] data_in2[15] data_in2[16] data_in2[17] data_in2[18] data_in2[19] data_in2[1]
+ data_in2[20] data_in2[21] data_in2[22] data_in2[23] data_in2[24] data_in2[25] data_in2[26]
+ data_in2[27] data_in2[28] data_in2[29] data_in2[2] data_in2[30] data_in2[31] data_in2[3]
+ data_in2[4] data_in2[5] data_in2[6] data_in2[7] data_in2[8] data_in2[9] data_out[0]
+ data_out[10] data_out[11] data_out[12] data_out[13] data_out[14] data_out[15] data_out[16]
+ data_out[17] data_out[18] data_out[19] data_out[1] data_out[20] data_out[21] data_out[22]
+ data_out[23] data_out[24] data_out[25] data_out[26] data_out[27] data_out[28] data_out[29]
+ data_out[2] data_out[30] data_out[31] data_out[3] data_out[4] data_out[5] data_out[6]
+ data_out[7] data_out[8] data_out[9]
X_2037_ _0461_ _0693_ _0511_ VGND VGND VPWR VPWR _1139_ sky130_fd_sc_hd__o21a_1
XFILLER_0_27_60 VGND VGND VPWR VPWR sky130_ef_sc_hd__decap_12
XTAP_177 VGND VPWR sky130_fd_sc_hd__tapvpwrvgnd_1
XTAP_188 VGND VPWR sky130_fd_sc_hd__tapvpwrvgnd_1
X_2106_ _0064_ _0066_ VGND VGND VPWR VPWR _0067_ sky130_fd_sc_hd__or2_1
XTAP_199 VGND VPWR sky130_fd_sc_hd__tapvpwrvgnd_1
XFILLER_0_57_391 VGND VGND VPWR VPWR sky130_fd_sc_hd__fill_1
XFILLER_0_7_81 VGND VGND VPWR VPWR sky130_ef_sc_hd__decap_12
XFILLER_0_55_317 VGND VGND VPWR VPWR sky130_ef_sc_hd__decap_12
XFILLER_0_63_361 VGND VGND VPWR VPWR sky130_ef_sc_hd__decap_12
Xrebuffer7 _1026_ VGND VGND VPWR VPWR net107 sky130_fd_sc_hd__buf_1
XFILLER_0_48_15 VGND VGND VPWR VPWR sky130_ef_sc_hd__decap_12
XFILLER_0_3_39 VGND VGND VPWR VPWR sky130_ef_sc_hd__decap_12
X_1270_ net21 VGND VGND VPWR VPWR _0390_ sky130_fd_sc_hd__inv_2
X_1606_ _0553_ _0722_ _0552_ VGND VGND VPWR VPWR _0723_ sky130_fd_sc_hd__o21a_1
XFILLER_0_1_141 VGND VGND VPWR VPWR sky130_ef_sc_hd__decap_12
XFILLER_0_14_203 VGND VGND VPWR VPWR sky130_fd_sc_hd__fill_1
XFILLER_0_14_236 VGND VGND VPWR VPWR sky130_fd_sc_hd__fill_1
X_1399_ net12 _0442_ _0471_ VGND VGND VPWR VPWR _0519_ sky130_fd_sc_hd__a21oi_1
X_1468_ _0481_ _0580_ _0585_ _0586_ VGND VGND VPWR VPWR _0587_ sky130_fd_sc_hd__a22o_1
X_1537_ net16 _0653_ _0654_ VGND VGND VPWR VPWR _0656_ sky130_fd_sc_hd__or3_1
XFILLER_0_52_309 VGND VGND VPWR VPWR sky130_ef_sc_hd__decap_12
XFILLER_0_45_361 VGND VGND VPWR VPWR sky130_ef_sc_hd__decap_12
XFILLER_0_18_29 VGND VGND VPWR VPWR sky130_ef_sc_hd__decap_12
XFILLER_0_50_27 VGND VGND VPWR VPWR sky130_fd_sc_hd__fill_1
XFILLER_0_28_339 VGND VGND VPWR VPWR sky130_ef_sc_hd__decap_12
XFILLER_0_59_69 VGND VGND VPWR VPWR sky130_ef_sc_hd__decap_12
X_1322_ _0441_ VGND VGND VPWR VPWR _0442_ sky130_fd_sc_hd__buf_4
X_1253_ net47 VGND VGND VPWR VPWR _0373_ sky130_fd_sc_hd__inv_2
X_1184_ _0146_ net66 VGND VGND VPWR VPWR _0304_ sky130_fd_sc_hd__xor2_1
XFILLER_0_46_169 VGND VGND VPWR VPWR sky130_fd_sc_hd__decap_4
XFILLER_0_27_361 VGND VGND VPWR VPWR sky130_ef_sc_hd__decap_12
XFILLER_0_19_317 VGND VGND VPWR VPWR sky130_ef_sc_hd__decap_12
XFILLER_0_52_128 VGND VGND VPWR VPWR sky130_fd_sc_hd__fill_2
XFILLER_0_37_169 VGND VGND VPWR VPWR sky130_fd_sc_hd__decap_4
XFILLER_0_33_320 VGND VGND VPWR VPWR sky130_ef_sc_hd__decap_12
XFILLER_0_61_15 VGND VGND VPWR VPWR sky130_ef_sc_hd__decap_12
XFILLER_0_45_27 VGND VGND VPWR VPWR sky130_ef_sc_hd__decap_12
XFILLER_0_0_29 VGND VGND VPWR VPWR sky130_fd_sc_hd__decap_8
XFILLER_0_56_401 VGND VGND VPWR VPWR sky130_fd_sc_hd__decap_6
XFILLER_0_43_128 VGND VGND VPWR VPWR sky130_fd_sc_hd__fill_1
X_1940_ _0993_ _0700_ _0699_ VGND VGND VPWR VPWR _1046_ sky130_fd_sc_hd__o21ai_1
X_1871_ _0977_ _0978_ VGND VGND VPWR VPWR _0979_ sky130_fd_sc_hd__and2_1
XFILLER_0_9_27 VGND VGND VPWR VPWR sky130_ef_sc_hd__decap_12
XFILLER_0_16_309 VGND VGND VPWR VPWR sky130_ef_sc_hd__decap_12
XFILLER_0_3_225 VGND VGND VPWR VPWR sky130_ef_sc_hd__decap_12
XFILLER_0_10_41 VGND VGND VPWR VPWR sky130_ef_sc_hd__decap_12
X_1305_ _0424_ VGND VGND VPWR VPWR _0425_ sky130_fd_sc_hd__buf_2
X_1236_ net15 net47 VGND VGND VPWR VPWR _0356_ sky130_fd_sc_hd__or2_1
X_2285_ _0352_ _0234_ _0219_ VGND VGND VPWR VPWR _0256_ sky130_fd_sc_hd__a21o_1
X_1167_ net27 net59 VGND VGND VPWR VPWR _0283_ sky130_fd_sc_hd__or2b_1
XFILLER_0_19_125 VGND VGND VPWR VPWR sky130_fd_sc_hd__fill_2
XFILLER_0_15_331 VGND VGND VPWR VPWR sky130_fd_sc_hd__decap_4
XFILLER_0_42_194 VGND VGND VPWR VPWR sky130_fd_sc_hd__fill_2
XFILLER_0_30_389 VGND VGND VPWR VPWR sky130_ef_sc_hd__decap_12
XFILLER_0_30_345 VGND VGND VPWR VPWR sky130_ef_sc_hd__decap_12
XFILLER_0_38_401 VGND VGND VPWR VPWR sky130_fd_sc_hd__decap_6
XTAP_507 VGND VPWR sky130_fd_sc_hd__tapvpwrvgnd_1
XFILLER_0_0_239 VGND VGND VPWR VPWR sky130_fd_sc_hd__fill_2
XTAP_529 VGND VPWR sky130_fd_sc_hd__tapvpwrvgnd_1
XTAP_518 VGND VPWR sky130_fd_sc_hd__tapvpwrvgnd_1
X_2070_ net17 _0028_ VGND VGND VPWR VPWR _0029_ sky130_fd_sc_hd__xnor2_2
XFILLER_0_56_253 VGND VGND VPWR VPWR sky130_fd_sc_hd__decap_3
X_1785_ _0458_ _0886_ _0887_ _0890_ _0896_ VGND VGND VPWR VPWR _0897_ sky130_fd_sc_hd__a311o_1
X_1854_ _0961_ _0962_ _0512_ VGND VGND VPWR VPWR _0963_ sky130_fd_sc_hd__mux2_1
XFILLER_0_24_161 VGND VGND VPWR VPWR sky130_fd_sc_hd__fill_2
X_1923_ net114 VGND VGND VPWR VPWR _1029_ sky130_fd_sc_hd__inv_2
XFILLER_0_16_106 VGND VGND VPWR VPWR sky130_fd_sc_hd__fill_1
XFILLER_0_21_51 VGND VGND VPWR VPWR sky130_fd_sc_hd__decap_4
XFILLER_0_12_345 VGND VGND VPWR VPWR sky130_ef_sc_hd__decap_12
XFILLER_0_12_389 VGND VGND VPWR VPWR sky130_ef_sc_hd__decap_12
XFILLER_0_34_3 VGND VGND VPWR VPWR sky130_ef_sc_hd__decap_12
X_2199_ _0162_ _0164_ VGND VGND VPWR VPWR _0165_ sky130_fd_sc_hd__xor2_1
X_1219_ net17 net49 VGND VGND VPWR VPWR _0339_ sky130_fd_sc_hd__or2_1
X_2268_ _0420_ _0236_ _0237_ VGND VGND VPWR VPWR _0238_ sky130_fd_sc_hd__and3_1
XFILLER_0_62_289 VGND VGND VPWR VPWR sky130_ef_sc_hd__decap_12
XFILLER_0_62_245 VGND VGND VPWR VPWR sky130_fd_sc_hd__decap_6
XFILLER_0_7_361 VGND VGND VPWR VPWR sky130_ef_sc_hd__decap_12
XFILLER_0_15_194 VGND VGND VPWR VPWR sky130_fd_sc_hd__decap_4
XFILLER_0_30_186 VGND VGND VPWR VPWR sky130_fd_sc_hd__decap_3
XFILLER_0_26_29 VGND VGND VPWR VPWR sky130_ef_sc_hd__decap_12
XFILLER_0_38_253 VGND VGND VPWR VPWR sky130_fd_sc_hd__decap_4
X_1570_ _0511_ _0680_ _0687_ _0565_ VGND VGND VPWR VPWR _0688_ sky130_fd_sc_hd__o2bb2a_1
XTAP_348 VGND VPWR sky130_fd_sc_hd__tapvpwrvgnd_1
XTAP_337 VGND VPWR sky130_fd_sc_hd__tapvpwrvgnd_1
XTAP_326 VGND VPWR sky130_fd_sc_hd__tapvpwrvgnd_1
XTAP_315 VGND VPWR sky130_fd_sc_hd__tapvpwrvgnd_1
XTAP_304 VGND VPWR sky130_fd_sc_hd__tapvpwrvgnd_1
X_2053_ _1112_ _0011_ _0505_ VGND VGND VPWR VPWR _0012_ sky130_fd_sc_hd__mux2_1
XTAP_359 VGND VPWR sky130_fd_sc_hd__tapvpwrvgnd_1
X_2122_ _0382_ _0062_ VGND VGND VPWR VPWR _0084_ sky130_fd_sc_hd__or2_1
XFILLER_0_20_9 VGND VGND VPWR VPWR sky130_ef_sc_hd__decap_12
Xrebuffer17 _1054_ VGND VGND VPWR VPWR net117 sky130_fd_sc_hd__clkbuf_1
XFILLER_0_32_61 VGND VGND VPWR VPWR sky130_fd_sc_hd__decap_3
X_1837_ _0463_ _0467_ VGND VGND VPWR VPWR _0947_ sky130_fd_sc_hd__or2_1
X_1906_ _0615_ _0606_ VGND VGND VPWR VPWR _1013_ sky130_fd_sc_hd__or2_1
X_1768_ _0752_ _0805_ _0815_ _0814_ _0861_ VGND VGND VPWR VPWR _0880_ sky130_fd_sc_hd__a2111oi_2
X_1699_ net65 _0812_ VGND VGND VPWR VPWR _0813_ sky130_fd_sc_hd__xnor2_2
XFILLER_0_12_197 VGND VGND VPWR VPWR sky130_fd_sc_hd__decap_8
XFILLER_0_35_223 VGND VGND VPWR VPWR sky130_fd_sc_hd__fill_1
XFILLER_0_50_248 VGND VGND VPWR VPWR sky130_fd_sc_hd__decap_4
XFILLER_0_50_226 VGND VGND VPWR VPWR sky130_fd_sc_hd__decap_3
Xoutput75 net75 VGND VGND VPWR VPWR data_out[15] sky130_fd_sc_hd__clkbuf_4
XFILLER_0_53_27 VGND VGND VPWR VPWR sky130_ef_sc_hd__decap_12
Xoutput97 net97 VGND VGND VPWR VPWR data_out[6] sky130_fd_sc_hd__clkbuf_4
Xoutput86 net86 VGND VGND VPWR VPWR data_out[25] sky130_fd_sc_hd__clkbuf_4
X_1622_ _0629_ _0631_ VGND VGND VPWR VPWR _0739_ sky130_fd_sc_hd__or2_1
X_1484_ net62 _0564_ VGND VGND VPWR VPWR _0603_ sky130_fd_sc_hd__nor2_2
X_1553_ _0408_ _0656_ _0655_ VGND VGND VPWR VPWR _0671_ sky130_fd_sc_hd__a21o_1
XTAP_178 VGND VPWR sky130_fd_sc_hd__tapvpwrvgnd_1
XTAP_167 VGND VPWR sky130_fd_sc_hd__tapvpwrvgnd_1
XTAP_156 VGND VPWR sky130_fd_sc_hd__tapvpwrvgnd_1
XTAP_145 VGND VPWR sky130_fd_sc_hd__tapvpwrvgnd_1
XTAP_134 VGND VPWR sky130_fd_sc_hd__tapvpwrvgnd_1
XTAP_189 VGND VPWR sky130_fd_sc_hd__tapvpwrvgnd_1
XFILLER_0_49_337 VGND VGND VPWR VPWR sky130_ef_sc_hd__decap_12
X_2036_ _0948_ _1137_ _0290_ VGND VGND VPWR VPWR _1138_ sky130_fd_sc_hd__mux2_1
XFILLER_0_27_72 VGND VGND VPWR VPWR sky130_ef_sc_hd__decap_12
X_2105_ _0029_ _0037_ _0065_ VGND VGND VPWR VPWR _0066_ sky130_fd_sc_hd__o21a_1
XFILLER_0_64_307 VGND VGND VPWR VPWR sky130_fd_sc_hd__fill_1
XFILLER_0_17_278 VGND VGND VPWR VPWR sky130_fd_sc_hd__fill_2
XFILLER_0_17_289 VGND VGND VPWR VPWR sky130_fd_sc_hd__decap_3
XFILLER_0_7_93 VGND VGND VPWR VPWR sky130_fd_sc_hd__decap_4
XFILLER_0_55_329 VGND VGND VPWR VPWR sky130_fd_sc_hd__decap_6
XFILLER_0_63_373 VGND VGND VPWR VPWR sky130_ef_sc_hd__decap_12
XFILLER_0_23_248 VGND VGND VPWR VPWR sky130_fd_sc_hd__decap_6
XFILLER_0_23_215 VGND VGND VPWR VPWR sky130_fd_sc_hd__fill_1
XFILLER_0_2_109 VGND VGND VPWR VPWR sky130_ef_sc_hd__decap_12
Xrebuffer8 net125 VGND VGND VPWR VPWR net108 sky130_fd_sc_hd__clkbuf_1
XFILLER_0_48_27 VGND VGND VPWR VPWR sky130_fd_sc_hd__fill_1
XFILLER_0_13_63 VGND VGND VPWR VPWR sky130_fd_sc_hd__fill_1
XFILLER_0_13_85 VGND VGND VPWR VPWR sky130_fd_sc_hd__fill_1
X_1536_ _0653_ _0654_ net16 VGND VGND VPWR VPWR _0655_ sky130_fd_sc_hd__o21a_1
X_1605_ _0699_ _0714_ _0721_ _0566_ VGND VGND VPWR VPWR _0722_ sky130_fd_sc_hd__o2bb2a_1
XFILLER_0_1_153 VGND VGND VPWR VPWR sky130_ef_sc_hd__decap_12
XFILLER_0_22_292 VGND VGND VPWR VPWR sky130_fd_sc_hd__fill_2
X_1398_ _0516_ _0517_ VGND VGND VPWR VPWR _0518_ sky130_fd_sc_hd__or2_1
X_1467_ _0480_ _0564_ VGND VGND VPWR VPWR _0586_ sky130_fd_sc_hd__nor2_1
XFILLER_0_49_178 VGND VGND VPWR VPWR sky130_fd_sc_hd__decap_4
XFILLER_0_49_134 VGND VGND VPWR VPWR sky130_fd_sc_hd__fill_2
XFILLER_0_9_220 VGND VGND VPWR VPWR sky130_fd_sc_hd__decap_4
X_2019_ _0768_ _1121_ VGND VGND VPWR VPWR _1122_ sky130_fd_sc_hd__nand2_1
XFILLER_0_60_365 VGND VGND VPWR VPWR sky130_ef_sc_hd__decap_12
XFILLER_0_60_321 VGND VGND VPWR VPWR sky130_ef_sc_hd__decap_12
XFILLER_0_45_373 VGND VGND VPWR VPWR sky130_ef_sc_hd__decap_12
XFILLER_0_13_281 VGND VGND VPWR VPWR sky130_fd_sc_hd__fill_1
XFILLER_0_34_29 VGND VGND VPWR VPWR sky130_ef_sc_hd__decap_12
XFILLER_0_28_307 VGND VGND VPWR VPWR sky130_fd_sc_hd__fill_1
XFILLER_0_63_181 VGND VGND VPWR VPWR sky130_ef_sc_hd__decap_12
X_1252_ net52 VGND VGND VPWR VPWR _0372_ sky130_fd_sc_hd__inv_2
X_1321_ _0436_ _0439_ _0440_ VGND VGND VPWR VPWR _0441_ sky130_fd_sc_hd__nor3_4
XFILLER_0_19_329 VGND VGND VPWR VPWR sky130_fd_sc_hd__decap_6
X_1183_ _0298_ _0302_ VGND VGND VPWR VPWR _0303_ sky130_fd_sc_hd__nand2_1
XFILLER_0_46_137 VGND VGND VPWR VPWR sky130_fd_sc_hd__decap_3
XFILLER_0_42_365 VGND VGND VPWR VPWR sky130_ef_sc_hd__decap_12
XFILLER_0_42_321 VGND VGND VPWR VPWR sky130_ef_sc_hd__decap_12
XFILLER_0_27_373 VGND VGND VPWR VPWR sky130_ef_sc_hd__decap_12
X_1519_ _0425_ _0541_ VGND VGND VPWR VPWR _0638_ sky130_fd_sc_hd__or2_1
XFILLER_0_4_83 VGND VGND VPWR VPWR sky130_fd_sc_hd__fill_1
XFILLER_0_60_195 VGND VGND VPWR VPWR sky130_fd_sc_hd__fill_1
XFILLER_0_45_181 VGND VGND VPWR VPWR sky130_fd_sc_hd__decap_8
XFILLER_0_33_332 VGND VGND VPWR VPWR sky130_fd_sc_hd__decap_4
XFILLER_0_61_27 VGND VGND VPWR VPWR sky130_ef_sc_hd__decap_12
XFILLER_0_45_39 VGND VGND VPWR VPWR sky130_ef_sc_hd__decap_12
XFILLER_0_28_104 VGND VGND VPWR VPWR sky130_fd_sc_hd__decap_4
XFILLER_0_36_181 VGND VGND VPWR VPWR sky130_fd_sc_hd__decap_4
XFILLER_0_28_126 VGND VGND VPWR VPWR sky130_fd_sc_hd__fill_1
XFILLER_0_24_321 VGND VGND VPWR VPWR sky130_ef_sc_hd__decap_12
XFILLER_0_9_39 VGND VGND VPWR VPWR sky130_ef_sc_hd__decap_12
X_1870_ net8 _0976_ VGND VGND VPWR VPWR _0978_ sky130_fd_sc_hd__or2_1
XFILLER_0_50_9 VGND VGND VPWR VPWR sky130_ef_sc_hd__decap_12
XFILLER_0_24_365 VGND VGND VPWR VPWR sky130_ef_sc_hd__decap_12
XFILLER_0_3_237 VGND VGND VPWR VPWR sky130_ef_sc_hd__decap_12
XFILLER_0_10_53 VGND VGND VPWR VPWR sky130_fd_sc_hd__decap_8
X_1304_ _0241_ VGND VGND VPWR VPWR _0424_ sky130_fd_sc_hd__buf_2
X_1166_ _0199_ _0231_ _0262_ VGND VGND VPWR VPWR _0272_ sky130_fd_sc_hd__nand3b_1
X_1235_ net12 net44 VGND VGND VPWR VPWR _0355_ sky130_fd_sc_hd__xor2_1
X_2284_ net28 _0254_ VGND VGND VPWR VPWR _0255_ sky130_fd_sc_hd__xnor2_2
XFILLER_0_19_51 VGND VGND VPWR VPWR sky130_fd_sc_hd__decap_4
XFILLER_0_51_82 VGND VGND VPWR VPWR sky130_ef_sc_hd__decap_12
X_1999_ _0448_ _1096_ _1102_ VGND VGND VPWR VPWR _1103_ sky130_fd_sc_hd__o21ai_1
XFILLER_0_30_357 VGND VGND VPWR VPWR sky130_fd_sc_hd__decap_6
XFILLER_0_53_405 VGND VGND VPWR VPWR sky130_fd_sc_hd__fill_2
XTAP_519 VGND VPWR sky130_fd_sc_hd__tapvpwrvgnd_1
XTAP_508 VGND VPWR sky130_fd_sc_hd__tapvpwrvgnd_1
XFILLER_0_21_335 VGND VGND VPWR VPWR sky130_fd_sc_hd__fill_1
XFILLER_0_56_27 VGND VGND VPWR VPWR sky130_fd_sc_hd__fill_1
XFILLER_0_56_243 VGND VGND VPWR VPWR sky130_fd_sc_hd__decap_8
XFILLER_0_56_221 VGND VGND VPWR VPWR sky130_fd_sc_hd__decap_6
XFILLER_0_56_210 VGND VGND VPWR VPWR sky130_fd_sc_hd__fill_2
XFILLER_0_8_307 VGND VGND VPWR VPWR sky130_fd_sc_hd__fill_1
X_1922_ _1027_ _1026_ VGND VGND VPWR VPWR _1028_ sky130_fd_sc_hd__nor2_4