*SPEF "ieee 1481-1999"
*DESIGN "instruction_coder"
*DATE "11:11:11 Fri 11 11, 1111"
*VENDOR "OpenRCX"
*PROGRAM "Parallel Extraction"
*VERSION "1.0"
*DESIGN_FLOW "NAME_SCOPE LOCAL" "PIN_CAP NONE"
*DIVIDER /
*DELIMITER :
*BUS_DELIMITER []
*T_UNIT 1 NS
*C_UNIT 1 PF
*R_UNIT 1 OHM
*L_UNIT 1 HENRY

*NAME_MAP
*3 data_in[0]
*4 data_in[10]
*5 data_in[11]
*6 data_in[12]
*7 data_in[13]
*8 data_in[14]
*9 data_in[15]
*10 data_in[16]
*11 data_in[17]
*12 data_in[18]
*13 data_in[19]
*14 data_in[1]
*15 data_in[20]
*16 data_in[21]
*17 data_in[22]
*18 data_in[23]
*19 data_in[24]
*20 data_in[25]
*21 data_in[26]
*22 data_in[27]
*23 data_in[28]
*24 data_in[29]
*25 data_in[2]
*26 data_in[30]
*27 data_in[31]
*28 data_in[3]
*29 data_in[4]
*30 data_in[5]
*31 data_in[6]
*32 data_in[7]
*33 data_in[8]
*34 data_in[9]
*35 funct3[0]
*36 funct3[1]
*37 funct3[2]
*38 funct7[0]
*39 funct7[1]
*40 funct7[2]
*41 funct7[3]
*42 funct7[4]
*43 funct7[5]
*44 funct7[6]
*45 immediateB[0]
*46 immediateB[10]
*47 immediateB[11]
*48 immediateB[1]
*49 immediateB[2]
*50 immediateB[3]
*51 immediateB[4]
*52 immediateB[5]
*53 immediateB[6]
*54 immediateB[7]
*55 immediateB[8]
*56 immediateB[9]
*57 immediateI[0]
*58 immediateI[10]
*59 immediateI[11]
*60 immediateI[1]
*61 immediateI[2]
*62 immediateI[3]
*63 immediateI[4]
*64 immediateI[5]
*65 immediateI[6]
*66 immediateI[7]
*67 immediateI[8]
*68 immediateI[9]
*69 immediateS[0]
*70 immediateS[10]
*71 immediateS[11]
*72 immediateS[1]
*73 immediateS[2]
*74 immediateS[3]
*75 immediateS[4]
*76 immediateS[5]
*77 immediateS[6]
*78 immediateS[7]
*79 immediateS[8]
*80 immediateS[9]
*81 opcode[0]
*82 opcode[1]
*83 opcode[2]
*84 opcode[3]
*85 opcode[4]
*86 opcode[5]
*87 opcode[6]
*88 rd[0]
*89 rd[1]
*90 rd[2]
*91 rd[3]
*92 rd[4]
*93 rs1[0]
*94 rs1[1]
*95 rs1[2]
*96 rs1[3]
*97 rs1[4]
*98 rs2[0]
*99 rs2[1]
*100 rs2[2]
*101 rs2[3]
*102 rs2[4]
*103 net1
*104 net10
*105 net100
*106 net11
*107 net12
*108 net13
*109 net14
*110 net15
*111 net16
*112 net17
*113 net18
*114 net19
*115 net2
*116 net20
*117 net21
*118 net22
*119 net23
*120 net24
*121 net25
*122 net26
*123 net27
*124 net28
*125 net29
*126 net3
*127 net30
*128 net31
*129 net32
*130 net33
*131 net34
*132 net35
*133 net36
*134 net37
*135 net38
*136 net39
*137 net4
*138 net40
*139 net41
*140 net42
*141 net43
*142 net44
*143 net45
*144 net46
*145 net47
*146 net48
*147 net49
*148 net5
*149 net50
*150 net51
*151 net52
*152 net53
*153 net54
*154 net55
*155 net56
*156 net57
*157 net58
*158 net59
*159 net6
*160 net60
*161 net61
*162 net62
*163 net63
*164 net64
*165 net65
*166 net66
*167 net67
*168 net68
*169 net69
*170 net7
*171 net70
*172 net71
*173 net72
*174 net73
*175 net74
*176 net75
*177 net76
*178 net77
*179 net78
*180 net79
*181 net8
*182 net80
*183 net81
*184 net82
*185 net83
*186 net84
*187 net85
*188 net86
*189 net87
*190 net88
*191 net89
*192 net9
*193 net90
*194 net91
*195 net92
*196 net93
*197 net94
*198 net95
*199 net96
*200 net97
*201 net98
*202 net99
*203 FILLER_0_0_104
*204 FILLER_0_0_113
*205 FILLER_0_0_121
*206 FILLER_0_0_128
*207 FILLER_0_0_147
*208 FILLER_0_0_15
*209 FILLER_0_0_155
*210 FILLER_0_0_160
*211 FILLER_0_0_169
*212 FILLER_0_0_177
*213 FILLER_0_0_189
*214 FILLER_0_0_195
*215 FILLER_0_0_203
*216 FILLER_0_0_212
*217 FILLER_0_0_23
*218 FILLER_0_0_231
*219 FILLER_0_0_239
*220 FILLER_0_0_247
*221 FILLER_0_0_251
*222 FILLER_0_0_253
*223 FILLER_0_0_261
*224 FILLER_0_0_27
*225 FILLER_0_0_273
*226 FILLER_0_0_279
*227 FILLER_0_0_287
*228 FILLER_0_0_29
*229 FILLER_0_0_296
*230 FILLER_0_0_315
*231 FILLER_0_0_323
*232 FILLER_0_0_331
*233 FILLER_0_0_335
*234 FILLER_0_0_337
*235 FILLER_0_0_342
*236 FILLER_0_0_354
*237 FILLER_0_0_365
*238 FILLER_0_0_37
*239 FILLER_0_0_373
*240 FILLER_0_0_380
*241 FILLER_0_0_393
*242 FILLER_0_0_41
*243 FILLER_0_0_53
*244 FILLER_0_0_63
*245 FILLER_0_0_71
*246 FILLER_0_0_79
*247 FILLER_0_0_83
*248 FILLER_0_0_85
*249 FILLER_0_0_93
*250 FILLER_0_10_109
*251 FILLER_0_10_121
*252 FILLER_0_10_133
*253 FILLER_0_10_139
*254 FILLER_0_10_141
*255 FILLER_0_10_15
*256 FILLER_0_10_153
*257 FILLER_0_10_165
*258 FILLER_0_10_177
*259 FILLER_0_10_189
*260 FILLER_0_10_195
*261 FILLER_0_10_197
*262 FILLER_0_10_209
*263 FILLER_0_10_221
*264 FILLER_0_10_233
*265 FILLER_0_10_245
*266 FILLER_0_10_251
*267 FILLER_0_10_253
*268 FILLER_0_10_265
*269 FILLER_0_10_27
*270 FILLER_0_10_277
*271 FILLER_0_10_289
*272 FILLER_0_10_29
*273 FILLER_0_10_3
*274 FILLER_0_10_301
*275 FILLER_0_10_307
*276 FILLER_0_10_309
*277 FILLER_0_10_321
*278 FILLER_0_10_333
*279 FILLER_0_10_345
*280 FILLER_0_10_357
*281 FILLER_0_10_363
*282 FILLER_0_10_365
*283 FILLER_0_10_377
*284 FILLER_0_10_389
*285 FILLER_0_10_401
*286 FILLER_0_10_41
*287 FILLER_0_10_53
*288 FILLER_0_10_65
*289 FILLER_0_10_77
*290 FILLER_0_10_83
*291 FILLER_0_10_85
*292 FILLER_0_10_97
*293 FILLER_0_11_105
*294 FILLER_0_11_111
*295 FILLER_0_11_113
*296 FILLER_0_11_125
*297 FILLER_0_11_137
*298 FILLER_0_11_149
*299 FILLER_0_11_161
*300 FILLER_0_11_167
*301 FILLER_0_11_169
*302 FILLER_0_11_181
*303 FILLER_0_11_193
*304 FILLER_0_11_205
*305 FILLER_0_11_21
*306 FILLER_0_11_217
*307 FILLER_0_11_223
*308 FILLER_0_11_225
*309 FILLER_0_11_237
*310 FILLER_0_11_249
*311 FILLER_0_11_261
*312 FILLER_0_11_273
*313 FILLER_0_11_279
*314 FILLER_0_11_281
*315 FILLER_0_11_293
*316 FILLER_0_11_305
*317 FILLER_0_11_317
*318 FILLER_0_11_329
*319 FILLER_0_11_33
*320 FILLER_0_11_335
*321 FILLER_0_11_337
*322 FILLER_0_11_349
*323 FILLER_0_11_361
*324 FILLER_0_11_373
*325 FILLER_0_11_385
*326 FILLER_0_11_391
*327 FILLER_0_11_393
*328 FILLER_0_11_405
*329 FILLER_0_11_45
*330 FILLER_0_11_53
*331 FILLER_0_11_57
*332 FILLER_0_11_69
*333 FILLER_0_11_81
*334 FILLER_0_11_9
*335 FILLER_0_11_93
*336 FILLER_0_12_109
*337 FILLER_0_12_121
*338 FILLER_0_12_133
*339 FILLER_0_12_139
*340 FILLER_0_12_141
*341 FILLER_0_12_15
*342 FILLER_0_12_153
*343 FILLER_0_12_165
*344 FILLER_0_12_177
*345 FILLER_0_12_189
*346 FILLER_0_12_195
*347 FILLER_0_12_197
*348 FILLER_0_12_209
*349 FILLER_0_12_221
*350 FILLER_0_12_233
*351 FILLER_0_12_245
*352 FILLER_0_12_251
*353 FILLER_0_12_253
*354 FILLER_0_12_265
*355 FILLER_0_12_27
*356 FILLER_0_12_277
*357 FILLER_0_12_289
*358 FILLER_0_12_29
*359 FILLER_0_12_3
*360 FILLER_0_12_301
*361 FILLER_0_12_307
*362 FILLER_0_12_309
*363 FILLER_0_12_321
*364 FILLER_0_12_333
*365 FILLER_0_12_345
*366 FILLER_0_12_357
*367 FILLER_0_12_363
*368 FILLER_0_12_365
*369 FILLER_0_12_377
*370 FILLER_0_12_389
*371 FILLER_0_12_397
*372 FILLER_0_12_402
*373 FILLER_0_12_41
*374 FILLER_0_12_53
*375 FILLER_0_12_65
*376 FILLER_0_12_77
*377 FILLER_0_12_83
*378 FILLER_0_12_85
*379 FILLER_0_12_97
*380 FILLER_0_13_105
*381 FILLER_0_13_111
*382 FILLER_0_13_113
*383 FILLER_0_13_125
*384 FILLER_0_13_137
*385 FILLER_0_13_149
*386 FILLER_0_13_15
*387 FILLER_0_13_161
*388 FILLER_0_13_167
*389 FILLER_0_13_169
*390 FILLER_0_13_181
*391 FILLER_0_13_193
*392 FILLER_0_13_205
*393 FILLER_0_13_217
*394 FILLER_0_13_223
*395 FILLER_0_13_225
*396 FILLER_0_13_237
*397 FILLER_0_13_249
*398 FILLER_0_13_261
*399 FILLER_0_13_27
*400 FILLER_0_13_273
*401 FILLER_0_13_279
*402 FILLER_0_13_281
*403 FILLER_0_13_293
*404 FILLER_0_13_3
*405 FILLER_0_13_305
*406 FILLER_0_13_317
*407 FILLER_0_13_329
*408 FILLER_0_13_335
*409 FILLER_0_13_337
*410 FILLER_0_13_349
*411 FILLER_0_13_361
*412 FILLER_0_13_373
*413 FILLER_0_13_385
*414 FILLER_0_13_39
*415 FILLER_0_13_391
*416 FILLER_0_13_393
*417 FILLER_0_13_405
*418 FILLER_0_13_51
*419 FILLER_0_13_55
*420 FILLER_0_13_57
*421 FILLER_0_13_69
*422 FILLER_0_13_81
*423 FILLER_0_13_93
*424 FILLER_0_14_109
*425 FILLER_0_14_121
*426 FILLER_0_14_133
*427 FILLER_0_14_139
*428 FILLER_0_14_141
*429 FILLER_0_14_153
*430 FILLER_0_14_165
*431 FILLER_0_14_177
*432 FILLER_0_14_189
*433 FILLER_0_14_195
*434 FILLER_0_14_197
*435 FILLER_0_14_209
*436 FILLER_0_14_21
*437 FILLER_0_14_221
*438 FILLER_0_14_233
*439 FILLER_0_14_245
*440 FILLER_0_14_251
*441 FILLER_0_14_253
*442 FILLER_0_14_265
*443 FILLER_0_14_27
*444 FILLER_0_14_277
*445 FILLER_0_14_289
*446 FILLER_0_14_29
*447 FILLER_0_14_301
*448 FILLER_0_14_307
*449 FILLER_0_14_309
*450 FILLER_0_14_321
*451 FILLER_0_14_333
*452 FILLER_0_14_345
*453 FILLER_0_14_357
*454 FILLER_0_14_363
*455 FILLER_0_14_365
*456 FILLER_0_14_377
*457 FILLER_0_14_389
*458 FILLER_0_14_401
*459 FILLER_0_14_41
*460 FILLER_0_14_46
*461 FILLER_0_14_58
*462 FILLER_0_14_70
*463 FILLER_0_14_82
*464 FILLER_0_14_85
*465 FILLER_0_14_9
*466 FILLER_0_14_97
*467 FILLER_0_15_105
*468 FILLER_0_15_111
*469 FILLER_0_15_113
*470 FILLER_0_15_125
*471 FILLER_0_15_137
*472 FILLER_0_15_149
*473 FILLER_0_15_15
*474 FILLER_0_15_161
*475 FILLER_0_15_167
*476 FILLER_0_15_169
*477 FILLER_0_15_181
*478 FILLER_0_15_193
*479 FILLER_0_15_205
*480 FILLER_0_15_217
*481 FILLER_0_15_223
*482 FILLER_0_15_225
*483 FILLER_0_15_237
*484 FILLER_0_15_249
*485 FILLER_0_15_261
*486 FILLER_0_15_27
*487 FILLER_0_15_273
*488 FILLER_0_15_279
*489 FILLER_0_15_281
*490 FILLER_0_15_293
*491 FILLER_0_15_3
*492 FILLER_0_15_305
*493 FILLER_0_15_317
*494 FILLER_0_15_329
*495 FILLER_0_15_335
*496 FILLER_0_15_337
*497 FILLER_0_15_349
*498 FILLER_0_15_360
*499 FILLER_0_15_372
*500 FILLER_0_15_384
*501 FILLER_0_15_39
*502 FILLER_0_15_393
*503 FILLER_0_15_402
*504 FILLER_0_15_51
*505 FILLER_0_15_55
*506 FILLER_0_15_57
*507 FILLER_0_15_69
*508 FILLER_0_15_81
*509 FILLER_0_15_93
*510 FILLER_0_16_109
*511 FILLER_0_16_121
*512 FILLER_0_16_133
*513 FILLER_0_16_139
*514 FILLER_0_16_141
*515 FILLER_0_16_153
*516 FILLER_0_16_165
*517 FILLER_0_16_177
*518 FILLER_0_16_189
*519 FILLER_0_16_195
*520 FILLER_0_16_197
*521 FILLER_0_16_209
*522 FILLER_0_16_21
*523 FILLER_0_16_221
*524 FILLER_0_16_233
*525 FILLER_0_16_245
*526 FILLER_0_16_251
*527 FILLER_0_16_253
*528 FILLER_0_16_265
*529 FILLER_0_16_27
*530 FILLER_0_16_277
*531 FILLER_0_16_289
*532 FILLER_0_16_29
*533 FILLER_0_16_301
*534 FILLER_0_16_307
*535 FILLER_0_16_309
*536 FILLER_0_16_321
*537 FILLER_0_16_329
*538 FILLER_0_16_335
*539 FILLER_0_16_347
*540 FILLER_0_16_359
*541 FILLER_0_16_363
*542 FILLER_0_16_365
*543 FILLER_0_16_377
*544 FILLER_0_16_389
*545 FILLER_0_16_401
*546 FILLER_0_16_41
*547 FILLER_0_16_53
*548 FILLER_0_16_65
*549 FILLER_0_16_77
*550 FILLER_0_16_83
*551 FILLER_0_16_85
*552 FILLER_0_16_9
*553 FILLER_0_16_97
*554 FILLER_0_17_105
*555 FILLER_0_17_111
*556 FILLER_0_17_113
*557 FILLER_0_17_125
*558 FILLER_0_17_137
*559 FILLER_0_17_149
*560 FILLER_0_17_15
*561 FILLER_0_17_161
*562 FILLER_0_17_167
*563 FILLER_0_17_169
*564 FILLER_0_17_181
*565 FILLER_0_17_193
*566 FILLER_0_17_205
*567 FILLER_0_17_217
*568 FILLER_0_17_223
*569 FILLER_0_17_225
*570 FILLER_0_17_237
*571 FILLER_0_17_249
*572 FILLER_0_17_261
*573 FILLER_0_17_27
*574 FILLER_0_17_273
*575 FILLER_0_17_279
*576 FILLER_0_17_281
*577 FILLER_0_17_293
*578 FILLER_0_17_3
*579 FILLER_0_17_305
*580 FILLER_0_17_317
*581 FILLER_0_17_329
*582 FILLER_0_17_335
*583 FILLER_0_17_337
*584 FILLER_0_17_349
*585 FILLER_0_17_361
*586 FILLER_0_17_373
*587 FILLER_0_17_385
*588 FILLER_0_17_39
*589 FILLER_0_17_391
*590 FILLER_0_17_393
*591 FILLER_0_17_401
*592 FILLER_0_17_51
*593 FILLER_0_17_55
*594 FILLER_0_17_57
*595 FILLER_0_17_69
*596 FILLER_0_17_81
*597 FILLER_0_17_93
*598 FILLER_0_18_109
*599 FILLER_0_18_121
*600 FILLER_0_18_133
*601 FILLER_0_18_139
*602 FILLER_0_18_141
*603 FILLER_0_18_15
*604 FILLER_0_18_153
*605 FILLER_0_18_165
*606 FILLER_0_18_177
*607 FILLER_0_18_189
*608 FILLER_0_18_195
*609 FILLER_0_18_197
*610 FILLER_0_18_209
*611 FILLER_0_18_221
*612 FILLER_0_18_233
*613 FILLER_0_18_245
*614 FILLER_0_18_251
*615 FILLER_0_18_253
*616 FILLER_0_18_265
*617 FILLER_0_18_27
*618 FILLER_0_18_277
*619 FILLER_0_18_289
*620 FILLER_0_18_29
*621 FILLER_0_18_3
*622 FILLER_0_18_301
*623 FILLER_0_18_307
*624 FILLER_0_18_309
*625 FILLER_0_18_321
*626 FILLER_0_18_333
*627 FILLER_0_18_345
*628 FILLER_0_18_357
*629 FILLER_0_18_363
*630 FILLER_0_18_365
*631 FILLER_0_18_377
*632 FILLER_0_18_389
*633 FILLER_0_18_401
*634 FILLER_0_18_41
*635 FILLER_0_18_53
*636 FILLER_0_18_65
*637 FILLER_0_18_77
*638 FILLER_0_18_83
*639 FILLER_0_18_85
*640 FILLER_0_18_97
*641 FILLER_0_19_105
*642 FILLER_0_19_111
*643 FILLER_0_19_113
*644 FILLER_0_19_125
*645 FILLER_0_19_137
*646 FILLER_0_19_149
*647 FILLER_0_19_15
*648 FILLER_0_19_161
*649 FILLER_0_19_167
*650 FILLER_0_19_169
*651 FILLER_0_19_181
*652 FILLER_0_19_193
*653 FILLER_0_19_205
*654 FILLER_0_19_217
*655 FILLER_0_19_223
*656 FILLER_0_19_225
*657 FILLER_0_19_237
*658 FILLER_0_19_249
*659 FILLER_0_19_261
*660 FILLER_0_19_27
*661 FILLER_0_19_273
*662 FILLER_0_19_279
*663 FILLER_0_19_281
*664 FILLER_0_19_293
*665 FILLER_0_19_3
*666 FILLER_0_19_305
*667 FILLER_0_19_317
*668 FILLER_0_19_329
*669 FILLER_0_19_335
*670 FILLER_0_19_337
*671 FILLER_0_19_349
*672 FILLER_0_19_361
*673 FILLER_0_19_373
*674 FILLER_0_19_385
*675 FILLER_0_19_39
*676 FILLER_0_19_391
*677 FILLER_0_19_396
*678 FILLER_0_19_404
*679 FILLER_0_19_51
*680 FILLER_0_19_55
*681 FILLER_0_19_57
*682 FILLER_0_19_69
*683 FILLER_0_19_81
*684 FILLER_0_19_93
*685 FILLER_0_1_102
*686 FILLER_0_1_110
*687 FILLER_0_1_113
*688 FILLER_0_1_122
*689 FILLER_0_1_13
*690 FILLER_0_1_134
*691 FILLER_0_1_146
*692 FILLER_0_1_158
*693 FILLER_0_1_166
*694 FILLER_0_1_169
*695 FILLER_0_1_181
*696 FILLER_0_1_185
*697 FILLER_0_1_197
*698 FILLER_0_1_208
*699 FILLER_0_1_22
*700 FILLER_0_1_220
*701 FILLER_0_1_225
*702 FILLER_0_1_237
*703 FILLER_0_1_241
*704 FILLER_0_1_253
*705 FILLER_0_1_264
*706 FILLER_0_1_276
*707 FILLER_0_1_281
*708 FILLER_0_1_287
*709 FILLER_0_1_291
*710 FILLER_0_1_299
*711 FILLER_0_1_304
*712 FILLER_0_1_316
*713 FILLER_0_1_323
*714 FILLER_0_1_335
*715 FILLER_0_1_337
*716 FILLER_0_1_34
*717 FILLER_0_1_349
*718 FILLER_0_1_361
*719 FILLER_0_1_373
*720 FILLER_0_1_385
*721 FILLER_0_1_391
*722 FILLER_0_1_393
*723 FILLER_0_1_405
*724 FILLER_0_1_46
*725 FILLER_0_1_54
*726 FILLER_0_1_57
*727 FILLER_0_1_69
*728 FILLER_0_1_81
*729 FILLER_0_1_90
*730 FILLER_0_20_109
*731 FILLER_0_20_121
*732 FILLER_0_20_133
*733 FILLER_0_20_139
*734 FILLER_0_20_141
*735 FILLER_0_20_153
*736 FILLER_0_20_165
*737 FILLER_0_20_177
*738 FILLER_0_20_189
*739 FILLER_0_20_195
*740 FILLER_0_20_197
*741 FILLER_0_20_209
*742 FILLER_0_20_21
*743 FILLER_0_20_221
*744 FILLER_0_20_233
*745 FILLER_0_20_245
*746 FILLER_0_20_251
*747 FILLER_0_20_253
*748 FILLER_0_20_265
*749 FILLER_0_20_27
*750 FILLER_0_20_277
*751 FILLER_0_20_289
*752 FILLER_0_20_29
*753 FILLER_0_20_301
*754 FILLER_0_20_307
*755 FILLER_0_20_309
*756 FILLER_0_20_321
*757 FILLER_0_20_333
*758 FILLER_0_20_345
*759 FILLER_0_20_357
*760 FILLER_0_20_363
*761 FILLER_0_20_365
*762 FILLER_0_20_377
*763 FILLER_0_20_389
*764 FILLER_0_20_397
*765 FILLER_0_20_402
*766 FILLER_0_20_406
*767 FILLER_0_20_41
*768 FILLER_0_20_53
*769 FILLER_0_20_65
*770 FILLER_0_20_77
*771 FILLER_0_20_83
*772 FILLER_0_20_85
*773 FILLER_0_20_9
*774 FILLER_0_20_97
*775 FILLER_0_21_105
*776 FILLER_0_21_111
*777 FILLER_0_21_113
*778 FILLER_0_21_125
*779 FILLER_0_21_137
*780 FILLER_0_21_149
*781 FILLER_0_21_15
*782 FILLER_0_21_161
*783 FILLER_0_21_167
*784 FILLER_0_21_169
*785 FILLER_0_21_181
*786 FILLER_0_21_193
*787 FILLER_0_21_205
*788 FILLER_0_21_217
*789 FILLER_0_21_223
*790 FILLER_0_21_225
*791 FILLER_0_21_237
*792 FILLER_0_21_249
*793 FILLER_0_21_261
*794 FILLER_0_21_27
*795 FILLER_0_21_273
*796 FILLER_0_21_279
*797 FILLER_0_21_281
*798 FILLER_0_21_293
*799 FILLER_0_21_3
*800 FILLER_0_21_305
*801 FILLER_0_21_317
*802 FILLER_0_21_329
*803 FILLER_0_21_335
*804 FILLER_0_21_337
*805 FILLER_0_21_349
*806 FILLER_0_21_361
*807 FILLER_0_21_373
*808 FILLER_0_21_385
*809 FILLER_0_21_39
*810 FILLER_0_21_391
*811 FILLER_0_21_393
*812 FILLER_0_21_51
*813 FILLER_0_21_55
*814 FILLER_0_21_57
*815 FILLER_0_21_69
*816 FILLER_0_21_81
*817 FILLER_0_21_93
*818 FILLER_0_22_109
*819 FILLER_0_22_12
*820 FILLER_0_22_121
*821 FILLER_0_22_133
*822 FILLER_0_22_139
*823 FILLER_0_22_141
*824 FILLER_0_22_153
*825 FILLER_0_22_165
*826 FILLER_0_22_177
*827 FILLER_0_22_189
*828 FILLER_0_22_195
*829 FILLER_0_22_197
*830 FILLER_0_22_209
*831 FILLER_0_22_221
*832 FILLER_0_22_233
*833 FILLER_0_22_24
*834 FILLER_0_22_245
*835 FILLER_0_22_251
*836 FILLER_0_22_253
*837 FILLER_0_22_265
*838 FILLER_0_22_277
*839 FILLER_0_22_289
*840 FILLER_0_22_29
*841 FILLER_0_22_301
*842 FILLER_0_22_307
*843 FILLER_0_22_309
*844 FILLER_0_22_321
*845 FILLER_0_22_333
*846 FILLER_0_22_345
*847 FILLER_0_22_357
*848 FILLER_0_22_363
*849 FILLER_0_22_365
*850 FILLER_0_22_377
*851 FILLER_0_22_389
*852 FILLER_0_22_401
*853 FILLER_0_22_41
*854 FILLER_0_22_53
*855 FILLER_0_22_65
*856 FILLER_0_22_77
*857 FILLER_0_22_83
*858 FILLER_0_22_85
*859 FILLER_0_22_97
*860 FILLER_0_23_105
*861 FILLER_0_23_111
*862 FILLER_0_23_113
*863 FILLER_0_23_125
*864 FILLER_0_23_137
*865 FILLER_0_23_149
*866 FILLER_0_23_15
*867 FILLER_0_23_161
*868 FILLER_0_23_167
*869 FILLER_0_23_169
*870 FILLER_0_23_181
*871 FILLER_0_23_193
*872 FILLER_0_23_205
*873 FILLER_0_23_217
*874 FILLER_0_23_223
*875 FILLER_0_23_225
*876 FILLER_0_23_237
*877 FILLER_0_23_249
*878 FILLER_0_23_261
*879 FILLER_0_23_27
*880 FILLER_0_23_273
*881 FILLER_0_23_279
*882 FILLER_0_23_281
*883 FILLER_0_23_293
*884 FILLER_0_23_3
*885 FILLER_0_23_305
*886 FILLER_0_23_317
*887 FILLER_0_23_325
*888 FILLER_0_23_330
*889 FILLER_0_23_337
*890 FILLER_0_23_349
*891 FILLER_0_23_361
*892 FILLER_0_23_373
*893 FILLER_0_23_385
*894 FILLER_0_23_39
*895 FILLER_0_23_391
*896 FILLER_0_23_393
*897 FILLER_0_23_405
*898 FILLER_0_23_51
*899 FILLER_0_23_55
*900 FILLER_0_23_57
*901 FILLER_0_23_69
*902 FILLER_0_23_81
*903 FILLER_0_23_93
*904 FILLER_0_24_109
*905 FILLER_0_24_121
*906 FILLER_0_24_133
*907 FILLER_0_24_139
*908 FILLER_0_24_141
*909 FILLER_0_24_15
*910 FILLER_0_24_153
*911 FILLER_0_24_165
*912 FILLER_0_24_177
*913 FILLER_0_24_189
*914 FILLER_0_24_195
*915 FILLER_0_24_197
*916 FILLER_0_24_209
*917 FILLER_0_24_221
*918 FILLER_0_24_233
*919 FILLER_0_24_245
*920 FILLER_0_24_251
*921 FILLER_0_24_253
*922 FILLER_0_24_265
*923 FILLER_0_24_27
*924 FILLER_0_24_277
*925 FILLER_0_24_289
*926 FILLER_0_24_29
*927 FILLER_0_24_3
*928 FILLER_0_24_301
*929 FILLER_0_24_307
*930 FILLER_0_24_309
*931 FILLER_0_24_321
*932 FILLER_0_24_333
*933 FILLER_0_24_345
*934 FILLER_0_24_357
*935 FILLER_0_24_363
*936 FILLER_0_24_365
*937 FILLER_0_24_377
*938 FILLER_0_24_389
*939 FILLER_0_24_41
*940 FILLER_0_24_53
*941 FILLER_0_24_65
*942 FILLER_0_24_77
*943 FILLER_0_24_83
*944 FILLER_0_24_85
*945 FILLER_0_24_97
*946 FILLER_0_25_105
*947 FILLER_0_25_111
*948 FILLER_0_25_113
*949 FILLER_0_25_125
*950 FILLER_0_25_137
*951 FILLER_0_25_149
*952 FILLER_0_25_15
*953 FILLER_0_25_161
*954 FILLER_0_25_167
*955 FILLER_0_25_169
*956 FILLER_0_25_181
*957 FILLER_0_25_193
*958 FILLER_0_25_205
*959 FILLER_0_25_217
*960 FILLER_0_25_223
*961 FILLER_0_25_225
*962 FILLER_0_25_237
*963 FILLER_0_25_249
*964 FILLER_0_25_261
*965 FILLER_0_25_27
*966 FILLER_0_25_273
*967 FILLER_0_25_279
*968 FILLER_0_25_281
*969 FILLER_0_25_293
*970 FILLER_0_25_3
*971 FILLER_0_25_305
*972 FILLER_0_25_317
*973 FILLER_0_25_329
*974 FILLER_0_25_335
*975 FILLER_0_25_337
*976 FILLER_0_25_349
*977 FILLER_0_25_361
*978 FILLER_0_25_373
*979 FILLER_0_25_385
*980 FILLER_0_25_39
*981 FILLER_0_25_391
*982 FILLER_0_25_393
*983 FILLER_0_25_405
*984 FILLER_0_25_51
*985 FILLER_0_25_55
*986 FILLER_0_25_57
*987 FILLER_0_25_69
*988 FILLER_0_25_81
*989 FILLER_0_25_93
*990 FILLER_0_26_109
*991 FILLER_0_26_121
*992 FILLER_0_26_133
*993 FILLER_0_26_139
*994 FILLER_0_26_141
*995 FILLER_0_26_153
*996 FILLER_0_26_165
*997 FILLER_0_26_177
*998 FILLER_0_26_189
*999 FILLER_0_26_195
*1000 FILLER_0_26_197
*1001 FILLER_0_26_209
*1002 FILLER_0_26_21
*1003 FILLER_0_26_221
*1004 FILLER_0_26_233
*1005 FILLER_0_26_245
*1006 FILLER_0_26_251
*1007 FILLER_0_26_253
*1008 FILLER_0_26_265
*1009 FILLER_0_26_27
*1010 FILLER_0_26_277
*1011 FILLER_0_26_289
*1012 FILLER_0_26_29
*1013 FILLER_0_26_301
*1014 FILLER_0_26_307
*1015 FILLER_0_26_309
*1016 FILLER_0_26_321
*1017 FILLER_0_26_333
*1018 FILLER_0_26_345
*1019 FILLER_0_26_357
*1020 FILLER_0_26_363
*1021 FILLER_0_26_365
*1022 FILLER_0_26_377
*1023 FILLER_0_26_389
*1024 FILLER_0_26_401
*1025 FILLER_0_26_41
*1026 FILLER_0_26_46
*1027 FILLER_0_26_58
*1028 FILLER_0_26_70
*1029 FILLER_0_26_82
*1030 FILLER_0_26_85
*1031 FILLER_0_26_9
*1032 FILLER_0_26_97
*1033 FILLER_0_27_105
*1034 FILLER_0_27_111
*1035 FILLER_0_27_113
*1036 FILLER_0_27_125
*1037 FILLER_0_27_137
*1038 FILLER_0_27_149
*1039 FILLER_0_27_15
*1040 FILLER_0_27_161
*1041 FILLER_0_27_167
*1042 FILLER_0_27_169
*1043 FILLER_0_27_181
*1044 FILLER_0_27_193
*1045 FILLER_0_27_205
*1046 FILLER_0_27_217
*1047 FILLER_0_27_223
*1048 FILLER_0_27_225
*1049 FILLER_0_27_237
*1050 FILLER_0_27_249
*1051 FILLER_0_27_261
*1052 FILLER_0_27_27
*1053 FILLER_0_27_273
*1054 FILLER_0_27_279
*1055 FILLER_0_27_281
*1056 FILLER_0_27_293
*1057 FILLER_0_27_3
*1058 FILLER_0_27_305
*1059 FILLER_0_27_317
*1060 FILLER_0_27_329
*1061 FILLER_0_27_335
*1062 FILLER_0_27_337
*1063 FILLER_0_27_349
*1064 FILLER_0_27_361
*1065 FILLER_0_27_373
*1066 FILLER_0_27_385
*1067 FILLER_0_27_39
*1068 FILLER_0_27_391
*1069 FILLER_0_27_393
*1070 FILLER_0_27_401
*1071 FILLER_0_27_51
*1072 FILLER_0_27_55
*1073 FILLER_0_27_57
*1074 FILLER_0_27_69
*1075 FILLER_0_27_81
*1076 FILLER_0_27_93
*1077 FILLER_0_28_10
*1078 FILLER_0_28_109
*1079 FILLER_0_28_121
*1080 FILLER_0_28_133
*1081 FILLER_0_28_139
*1082 FILLER_0_28_141
*1083 FILLER_0_28_153
*1084 FILLER_0_28_165
*1085 FILLER_0_28_177
*1086 FILLER_0_28_189
*1087 FILLER_0_28_195
*1088 FILLER_0_28_197
*1089 FILLER_0_28_209
*1090 FILLER_0_28_22
*1091 FILLER_0_28_221
*1092 FILLER_0_28_233
*1093 FILLER_0_28_245
*1094 FILLER_0_28_251
*1095 FILLER_0_28_253
*1096 FILLER_0_28_265
*1097 FILLER_0_28_277
*1098 FILLER_0_28_289
*1099 FILLER_0_28_29
*1100 FILLER_0_28_3
*1101 FILLER_0_28_301
*1102 FILLER_0_28_307
*1103 FILLER_0_28_309
*1104 FILLER_0_28_321
*1105 FILLER_0_28_333
*1106 FILLER_0_28_345
*1107 FILLER_0_28_357
*1108 FILLER_0_28_363
*1109 FILLER_0_28_365
*1110 FILLER_0_28_377
*1111 FILLER_0_28_389
*1112 FILLER_0_28_401
*1113 FILLER_0_28_41
*1114 FILLER_0_28_53
*1115 FILLER_0_28_65
*1116 FILLER_0_28_77
*1117 FILLER_0_28_83
*1118 FILLER_0_28_85
*1119 FILLER_0_28_97
*1120 FILLER_0_29_105
*1121 FILLER_0_29_111
*1122 FILLER_0_29_113
*1123 FILLER_0_29_125
*1124 FILLER_0_29_137
*1125 FILLER_0_29_149
*1126 FILLER_0_29_161
*1127 FILLER_0_29_167
*1128 FILLER_0_29_169
*1129 FILLER_0_29_181
*1130 FILLER_0_29_19
*1131 FILLER_0_29_193
*1132 FILLER_0_29_205
*1133 FILLER_0_29_217
*1134 FILLER_0_29_223
*1135 FILLER_0_29_225
*1136 FILLER_0_29_237
*1137 FILLER_0_29_249
*1138 FILLER_0_29_261
*1139 FILLER_0_29_273
*1140 FILLER_0_29_279
*1141 FILLER_0_29_281
*1142 FILLER_0_29_293
*1143 FILLER_0_29_305
*1144 FILLER_0_29_31
*1145 FILLER_0_29_317
*1146 FILLER_0_29_329
*1147 FILLER_0_29_335
*1148 FILLER_0_29_337
*1149 FILLER_0_29_349
*1150 FILLER_0_29_361
*1151 FILLER_0_29_373
*1152 FILLER_0_29_385
*1153 FILLER_0_29_391
*1154 FILLER_0_29_393
*1155 FILLER_0_29_402
*1156 FILLER_0_29_406
*1157 FILLER_0_29_43
*1158 FILLER_0_29_55
*1159 FILLER_0_29_57
*1160 FILLER_0_29_69
*1161 FILLER_0_29_7
*1162 FILLER_0_29_81
*1163 FILLER_0_29_93
*1164 FILLER_0_2_109
*1165 FILLER_0_2_121
*1166 FILLER_0_2_133
*1167 FILLER_0_2_139
*1168 FILLER_0_2_141
*1169 FILLER_0_2_15
*1170 FILLER_0_2_153
*1171 FILLER_0_2_165
*1172 FILLER_0_2_177
*1173 FILLER_0_2_189
*1174 FILLER_0_2_195
*1175 FILLER_0_2_197
*1176 FILLER_0_2_209
*1177 FILLER_0_2_221
*1178 FILLER_0_2_233
*1179 FILLER_0_2_245
*1180 FILLER_0_2_251
*1181 FILLER_0_2_253
*1182 FILLER_0_2_265
*1183 FILLER_0_2_27
*1184 FILLER_0_2_277
*1185 FILLER_0_2_289
*1186 FILLER_0_2_29
*1187 FILLER_0_2_3
*1188 FILLER_0_2_301
*1189 FILLER_0_2_307
*1190 FILLER_0_2_309
*1191 FILLER_0_2_321
*1192 FILLER_0_2_333
*1193 FILLER_0_2_345
*1194 FILLER_0_2_357
*1195 FILLER_0_2_363
*1196 FILLER_0_2_365
*1197 FILLER_0_2_377
*1198 FILLER_0_2_389
*1199 FILLER_0_2_395
*1200 FILLER_0_2_399
*1201 FILLER_0_2_41
*1202 FILLER_0_2_53
*1203 FILLER_0_2_65
*1204 FILLER_0_2_77
*1205 FILLER_0_2_83
*1206 FILLER_0_2_85
*1207 FILLER_0_2_97
*1208 FILLER_0_30_109
*1209 FILLER_0_30_121
*1210 FILLER_0_30_133
*1211 FILLER_0_30_139
*1212 FILLER_0_30_141
*1213 FILLER_0_30_15
*1214 FILLER_0_30_153
*1215 FILLER_0_30_165
*1216 FILLER_0_30_177
*1217 FILLER_0_30_189
*1218 FILLER_0_30_195
*1219 FILLER_0_30_197
*1220 FILLER_0_30_209
*1221 FILLER_0_30_221
*1222 FILLER_0_30_233
*1223 FILLER_0_30_245
*1224 FILLER_0_30_251
*1225 FILLER_0_30_253
*1226 FILLER_0_30_265
*1227 FILLER_0_30_27
*1228 FILLER_0_30_277
*1229 FILLER_0_30_289
*1230 FILLER_0_30_29
*1231 FILLER_0_30_3
*1232 FILLER_0_30_301
*1233 FILLER_0_30_307
*1234 FILLER_0_30_309
*1235 FILLER_0_30_321
*1236 FILLER_0_30_333
*1237 FILLER_0_30_345
*1238 FILLER_0_30_357
*1239 FILLER_0_30_363
*1240 FILLER_0_30_365
*1241 FILLER_0_30_377
*1242 FILLER_0_30_389
*1243 FILLER_0_30_397
*1244 FILLER_0_30_402
*1245 FILLER_0_30_41
*1246 FILLER_0_30_53
*1247 FILLER_0_30_65
*1248 FILLER_0_30_77
*1249 FILLER_0_30_83
*1250 FILLER_0_30_85
*1251 FILLER_0_30_97
*1252 FILLER_0_31_105
*1253 FILLER_0_31_111
*1254 FILLER_0_31_113
*1255 FILLER_0_31_125
*1256 FILLER_0_31_137
*1257 FILLER_0_31_149
*1258 FILLER_0_31_15
*1259 FILLER_0_31_161
*1260 FILLER_0_31_167
*1261 FILLER_0_31_169
*1262 FILLER_0_31_181
*1263 FILLER_0_31_193
*1264 FILLER_0_31_205
*1265 FILLER_0_31_217
*1266 FILLER_0_31_223
*1267 FILLER_0_31_225
*1268 FILLER_0_31_237
*1269 FILLER_0_31_249
*1270 FILLER_0_31_261
*1271 FILLER_0_31_27
*1272 FILLER_0_31_273
*1273 FILLER_0_31_279
*1274 FILLER_0_31_281
*1275 FILLER_0_31_293
*1276 FILLER_0_31_3
*1277 FILLER_0_31_305
*1278 FILLER_0_31_317
*1279 FILLER_0_31_329
*1280 FILLER_0_31_335
*1281 FILLER_0_31_337
*1282 FILLER_0_31_349
*1283 FILLER_0_31_361
*1284 FILLER_0_31_373
*1285 FILLER_0_31_385
*1286 FILLER_0_31_39
*1287 FILLER_0_31_391
*1288 FILLER_0_31_393
*1289 FILLER_0_31_402
*1290 FILLER_0_31_406
*1291 FILLER_0_31_55
*1292 FILLER_0_31_57
*1293 FILLER_0_31_69
*1294 FILLER_0_31_81
*1295 FILLER_0_31_93
*1296 FILLER_0_32_109
*1297 FILLER_0_32_12
*1298 FILLER_0_32_121
*1299 FILLER_0_32_133
*1300 FILLER_0_32_139
*1301 FILLER_0_32_141
*1302 FILLER_0_32_153
*1303 FILLER_0_32_165
*1304 FILLER_0_32_169
*1305 FILLER_0_32_181
*1306 FILLER_0_32_193
*1307 FILLER_0_32_197
*1308 FILLER_0_32_216
*1309 FILLER_0_32_228
*1310 FILLER_0_32_24
*1311 FILLER_0_32_240
*1312 FILLER_0_32_253
*1313 FILLER_0_32_265
*1314 FILLER_0_32_277
*1315 FILLER_0_32_289
*1316 FILLER_0_32_29
*1317 FILLER_0_32_301
*1318 FILLER_0_32_307
*1319 FILLER_0_32_309
*1320 FILLER_0_32_321
*1321 FILLER_0_32_336
*1322 FILLER_0_32_348
*1323 FILLER_0_32_360
*1324 FILLER_0_32_365
*1325 FILLER_0_32_377
*1326 FILLER_0_32_389
*1327 FILLER_0_32_397
*1328 FILLER_0_32_402
*1329 FILLER_0_32_41
*1330 FILLER_0_32_53
*1331 FILLER_0_32_60
*1332 FILLER_0_32_72
*1333 FILLER_0_32_85
*1334 FILLER_0_32_97
*1335 FILLER_0_33_105
*1336 FILLER_0_33_11
*1337 FILLER_0_33_111
*1338 FILLER_0_33_113
*1339 FILLER_0_33_125
*1340 FILLER_0_33_137
*1341 FILLER_0_33_149
*1342 FILLER_0_33_161
*1343 FILLER_0_33_167
*1344 FILLER_0_33_169
*1345 FILLER_0_33_17
*1346 FILLER_0_33_181
*1347 FILLER_0_33_193
*1348 FILLER_0_33_205
*1349 FILLER_0_33_217
*1350 FILLER_0_33_223
*1351 FILLER_0_33_225
*1352 FILLER_0_33_237
*1353 FILLER_0_33_249
*1354 FILLER_0_33_261
*1355 FILLER_0_33_273
*1356 FILLER_0_33_279
*1357 FILLER_0_33_281
*1358 FILLER_0_33_29
*1359 FILLER_0_33_293
*1360 FILLER_0_33_3
*1361 FILLER_0_33_305
*1362 FILLER_0_33_317
*1363 FILLER_0_33_329
*1364 FILLER_0_33_335
*1365 FILLER_0_33_337
*1366 FILLER_0_33_349
*1367 FILLER_0_33_361
*1368 FILLER_0_33_373
*1369 FILLER_0_33_379
*1370 FILLER_0_33_384
*1371 FILLER_0_33_393
*1372 FILLER_0_33_405
*1373 FILLER_0_33_41
*1374 FILLER_0_33_53
*1375 FILLER_0_33_57
*1376 FILLER_0_33_69
*1377 FILLER_0_33_81
*1378 FILLER_0_33_93
*1379 FILLER_0_34_109
*1380 FILLER_0_34_121
*1381 FILLER_0_34_133
*1382 FILLER_0_34_139
*1383 FILLER_0_34_141
*1384 FILLER_0_34_15
*1385 FILLER_0_34_153
*1386 FILLER_0_34_165
*1387 FILLER_0_34_177
*1388 FILLER_0_34_192
*1389 FILLER_0_34_197
*1390 FILLER_0_34_209
*1391 FILLER_0_34_221
*1392 FILLER_0_34_233
*1393 FILLER_0_34_245
*1394 FILLER_0_34_251
*1395 FILLER_0_34_253
*1396 FILLER_0_34_265
*1397 FILLER_0_34_27
*1398 FILLER_0_34_277
*1399 FILLER_0_34_289
*1400 FILLER_0_34_29
*1401 FILLER_0_34_3
*1402 FILLER_0_34_301
*1403 FILLER_0_34_307
*1404 FILLER_0_34_309
*1405 FILLER_0_34_321
*1406 FILLER_0_34_333
*1407 FILLER_0_34_345
*1408 FILLER_0_34_357
*1409 FILLER_0_34_363
*1410 FILLER_0_34_365
*1411 FILLER_0_34_377
*1412 FILLER_0_34_389
*1413 FILLER_0_34_401
*1414 FILLER_0_34_41
*1415 FILLER_0_34_53
*1416 FILLER_0_34_65
*1417 FILLER_0_34_77
*1418 FILLER_0_34_83
*1419 FILLER_0_34_85
*1420 FILLER_0_34_97
*1421 FILLER_0_35_105
*1422 FILLER_0_35_111
*1423 FILLER_0_35_113
*1424 FILLER_0_35_125
*1425 FILLER_0_35_137
*1426 FILLER_0_35_149
*1427 FILLER_0_35_161
*1428 FILLER_0_35_167
*1429 FILLER_0_35_169
*1430 FILLER_0_35_181
*1431 FILLER_0_35_19
*1432 FILLER_0_35_193
*1433 FILLER_0_35_205
*1434 FILLER_0_35_217
*1435 FILLER_0_35_223
*1436 FILLER_0_35_225
*1437 FILLER_0_35_237
*1438 FILLER_0_35_249
*1439 FILLER_0_35_261
*1440 FILLER_0_35_273
*1441 FILLER_0_35_279
*1442 FILLER_0_35_281
*1443 FILLER_0_35_293
*1444 FILLER_0_35_305
*1445 FILLER_0_35_31
*1446 FILLER_0_35_317
*1447 FILLER_0_35_329
*1448 FILLER_0_35_335
*1449 FILLER_0_35_337
*1450 FILLER_0_35_349
*1451 FILLER_0_35_361
*1452 FILLER_0_35_373
*1453 FILLER_0_35_385
*1454 FILLER_0_35_391
*1455 FILLER_0_35_393
*1456 FILLER_0_35_405
*1457 FILLER_0_35_43
*1458 FILLER_0_35_55
*1459 FILLER_0_35_57
*1460 FILLER_0_35_69
*1461 FILLER_0_35_7
*1462 FILLER_0_35_81
*1463 FILLER_0_35_93
*1464 FILLER_0_36_10
*1465 FILLER_0_36_109
*1466 FILLER_0_36_121
*1467 FILLER_0_36_133
*1468 FILLER_0_36_139
*1469 FILLER_0_36_141
*1470 FILLER_0_36_153
*1471 FILLER_0_36_165
*1472 FILLER_0_36_177
*1473 FILLER_0_36_189
*1474 FILLER_0_36_195
*1475 FILLER_0_36_197
*1476 FILLER_0_36_209
*1477 FILLER_0_36_22
*1478 FILLER_0_36_221
*1479 FILLER_0_36_233
*1480 FILLER_0_36_245
*1481 FILLER_0_36_251
*1482 FILLER_0_36_253
*1483 FILLER_0_36_265
*1484 FILLER_0_36_277
*1485 FILLER_0_36_289
*1486 FILLER_0_36_29
*1487 FILLER_0_36_3
*1488 FILLER_0_36_301
*1489 FILLER_0_36_307