* NGSPICE file created from instruction_coder.ext - technology: sky130A

* Black-box entry subcircuit for sky130_fd_sc_hd__tapvpwrvgnd_1 abstract view
.subckt sky130_fd_sc_hd__tapvpwrvgnd_1 VGND VPWR
.ends

* Black-box entry subcircuit for sky130_ef_sc_hd__decap_12 abstract view
.subckt sky130_ef_sc_hd__decap_12 VGND VNB VPB VPWR
.ends

* Black-box entry subcircuit for sky130_fd_sc_hd__fill_1 abstract view
.subckt sky130_fd_sc_hd__fill_1 VGND VNB VPB VPWR
.ends

* Black-box entry subcircuit for sky130_fd_sc_hd__decap_8 abstract view
.subckt sky130_fd_sc_hd__decap_8 VGND VNB VPB VPWR
.ends

* Black-box entry subcircuit for sky130_fd_sc_hd__decap_6 abstract view
.subckt sky130_fd_sc_hd__decap_6 VGND VNB VPB VPWR
.ends

* Black-box entry subcircuit for sky130_fd_sc_hd__decap_4 abstract view
.subckt sky130_fd_sc_hd__decap_4 VGND VNB VPB VPWR
.ends

* Black-box entry subcircuit for sky130_fd_sc_hd__clkbuf_1 abstract view
.subckt sky130_fd_sc_hd__clkbuf_1 A VGND VNB VPB VPWR X
.ends

* Black-box entry subcircuit for sky130_fd_sc_hd__fill_2 abstract view
.subckt sky130_fd_sc_hd__fill_2 VGND VNB VPB VPWR
.ends

* Black-box entry subcircuit for sky130_fd_sc_hd__clkbuf_4 abstract view
.subckt sky130_fd_sc_hd__clkbuf_4 A VGND VNB VPB VPWR X
.ends

* Black-box entry subcircuit for sky130_fd_sc_hd__clkbuf_2 abstract view
.subckt sky130_fd_sc_hd__clkbuf_2 A VGND VNB VPB VPWR X
.ends

* Black-box entry subcircuit for sky130_fd_sc_hd__decap_3 abstract view
.subckt sky130_fd_sc_hd__decap_3 VGND VNB VPB VPWR
.ends

* Black-box entry subcircuit for sky130_fd_sc_hd__buf_1 abstract view
.subckt sky130_fd_sc_hd__buf_1 A VGND VNB VPB VPWR X
.ends

* Black-box entry subcircuit for sky130_fd_sc_hd__buf_2 abstract view
.subckt sky130_fd_sc_hd__buf_2 A VGND VNB VPB VPWR X
.ends

* Black-box entry subcircuit for sky130_fd_sc_hd__dlymetal6s2s_1 abstract view
.subckt sky130_fd_sc_hd__dlymetal6s2s_1 A VGND VNB VPB VPWR X
.ends

.subckt instruction_coder VGND VPWR data_in[0] data_in[10] data_in[11] data_in[12]
+ data_in[13] data_in[14] data_in[15] data_in[16] data_in[17] data_in[18] data_in[19]
+ data_in[1] data_in[20] data_in[21] data_in[22] data_in[23] data_in[24] data_in[25]
+ data_in[26] data_in[27] data_in[28] data_in[29] data_in[2] data_in[30] data_in[31]
+ data_in[3] data_in[4] data_in[5] data_in[6] data_in[7] data_in[8] data_in[9] funct3[0]
+ funct3[1] funct3[2] funct7[0] funct7[1] funct7[2] funct7[3] funct7[4] funct7[5]
+ funct7[6] immediateB[0] immediateB[10] immediateB[11] immediateB[1] immediateB[2]
+ immediateB[3] immediateB[4] immediateB[5] immediateB[6] immediateB[7] immediateB[8]
+ immediateB[9] immediateI[0] immediateI[10] immediateI[11] immediateI[1] immediateI[2]
+ immediateI[3] immediateI[4] immediateI[5] immediateI[6] immediateI[7] immediateI[8]
+ immediateI[9] immediateS[0] immediateS[10] immediateS[11] immediateS[1] immediateS[2]
+ immediateS[3] immediateS[4] immediateS[5] immediateS[6] immediateS[7] immediateS[8]
+ immediateS[9] opcode[0] opcode[1] opcode[2] opcode[3] opcode[4] opcode[5] opcode[6]
+ rd[0] rd[1] rd[2] rd[3] rd[4] rs1[0] rs1[1] rs1[2] rs1[3] rs1[4] rs2[0] rs2[1] rs2[2]
+ rs2[3] rs2[4]
XTAP_177 VGND VPWR sky130_fd_sc_hd__tapvpwrvgnd_1
XTAP_188 VGND VPWR sky130_fd_sc_hd__tapvpwrvgnd_1
XTAP_199 VGND VPWR sky130_fd_sc_hd__tapvpwrvgnd_1
XFILLER_0_27_93 VGND VGND VPWR VPWR sky130_ef_sc_hd__decap_12
XFILLER_0_64_317 VGND VGND VPWR VPWR sky130_fd_sc_hd__fill_1
XFILLER_0_57_391 VGND VGND VPWR VPWR sky130_fd_sc_hd__fill_1
XFILLER_0_43_81 VGND VGND VPWR VPWR sky130_ef_sc_hd__decap_12
XFILLER_0_7_81 VGND VGND VPWR VPWR sky130_ef_sc_hd__decap_12
XFILLER_0_55_317 VGND VGND VPWR VPWR sky130_ef_sc_hd__decap_12
XFILLER_0_23_225 VGND VGND VPWR VPWR sky130_ef_sc_hd__decap_12
XFILLER_0_48_15 VGND VGND VPWR VPWR sky130_ef_sc_hd__decap_12
XFILLER_0_64_69 VGND VGND VPWR VPWR sky130_ef_sc_hd__decap_12
XFILLER_0_58_177 VGND VGND VPWR VPWR sky130_fd_sc_hd__decap_8
XFILLER_0_58_133 VGND VGND VPWR VPWR sky130_fd_sc_hd__decap_6
XFILLER_0_39_391 VGND VGND VPWR VPWR sky130_fd_sc_hd__fill_1
XFILLER_0_13_51 VGND VGND VPWR VPWR sky130_fd_sc_hd__decap_4
XFILLER_0_1_185 VGND VGND VPWR VPWR sky130_ef_sc_hd__decap_12
XFILLER_0_49_111 VGND VGND VPWR VPWR sky130_fd_sc_hd__fill_1
XFILLER_0_64_169 VGND VGND VPWR VPWR sky130_ef_sc_hd__decap_12
XFILLER_0_52_309 VGND VGND VPWR VPWR sky130_ef_sc_hd__decap_12
XFILLER_0_45_361 VGND VGND VPWR VPWR sky130_ef_sc_hd__decap_12
XFILLER_0_37_317 VGND VGND VPWR VPWR sky130_ef_sc_hd__decap_12
XFILLER_0_18_29 VGND VGND VPWR VPWR sky130_ef_sc_hd__decap_12
XFILLER_0_55_125 VGND VGND VPWR VPWR sky130_ef_sc_hd__decap_12
XFILLER_0_55_169 VGND VGND VPWR VPWR sky130_ef_sc_hd__decap_12
XFILLER_0_11_217 VGND VGND VPWR VPWR sky130_fd_sc_hd__decap_6
XFILLER_0_59_69 VGND VGND VPWR VPWR sky130_ef_sc_hd__decap_12
X_66_ net20 VGND VGND VPWR VPWR net51 sky130_fd_sc_hd__clkbuf_1
XFILLER_0_34_309 VGND VGND VPWR VPWR sky130_ef_sc_hd__decap_12
XFILLER_0_27_361 VGND VGND VPWR VPWR sky130_ef_sc_hd__decap_12
XFILLER_0_6_233 VGND VGND VPWR VPWR sky130_ef_sc_hd__decap_12
XFILLER_0_6_277 VGND VGND VPWR VPWR sky130_ef_sc_hd__decap_12
XFILLER_0_19_317 VGND VGND VPWR VPWR sky130_ef_sc_hd__decap_12
XFILLER_0_24_83 VGND VGND VPWR VPWR sky130_fd_sc_hd__fill_1
XFILLER_0_37_125 VGND VGND VPWR VPWR sky130_ef_sc_hd__decap_12
XFILLER_0_52_139 VGND VGND VPWR VPWR sky130_fd_sc_hd__fill_1
XFILLER_0_37_169 VGND VGND VPWR VPWR sky130_ef_sc_hd__decap_12
XFILLER_0_61_15 VGND VGND VPWR VPWR sky130_ef_sc_hd__decap_12
XFILLER_0_45_27 VGND VGND VPWR VPWR sky130_ef_sc_hd__decap_12
XFILLER_0_0_29 VGND VGND VPWR VPWR sky130_fd_sc_hd__decap_8
XFILLER_0_56_401 VGND VGND VPWR VPWR sky130_fd_sc_hd__decap_6
XFILLER_0_9_27 VGND VGND VPWR VPWR sky130_ef_sc_hd__decap_12
XFILLER_0_16_309 VGND VGND VPWR VPWR sky130_ef_sc_hd__decap_12
XFILLER_0_51_161 VGND VGND VPWR VPWR sky130_fd_sc_hd__decap_6
XFILLER_0_3_225 VGND VGND VPWR VPWR sky130_ef_sc_hd__decap_12
XFILLER_0_10_41 VGND VGND VPWR VPWR sky130_ef_sc_hd__decap_12
XFILLER_0_10_85 VGND VGND VPWR VPWR sky130_ef_sc_hd__decap_12
XFILLER_0_59_261 VGND VGND VPWR VPWR sky130_ef_sc_hd__decap_12
XFILLER_0_35_93 VGND VGND VPWR VPWR sky130_ef_sc_hd__decap_12
X_49_ net17 VGND VGND VPWR VPWR net100 sky130_fd_sc_hd__clkbuf_1
XFILLER_0_19_125 VGND VGND VPWR VPWR sky130_ef_sc_hd__decap_12
XFILLER_0_51_81 VGND VGND VPWR VPWR sky130_ef_sc_hd__decap_12
XFILLER_0_34_139 VGND VGND VPWR VPWR sky130_fd_sc_hd__fill_1
XFILLER_0_30_301 VGND VGND VPWR VPWR sky130_fd_sc_hd__decap_6
XFILLER_0_19_169 VGND VGND VPWR VPWR sky130_ef_sc_hd__decap_12
XFILLER_0_30_389 VGND VGND VPWR VPWR sky130_fd_sc_hd__decap_8
XFILLER_0_30_345 VGND VGND VPWR VPWR sky130_ef_sc_hd__decap_12
XFILLER_0_38_401 VGND VGND VPWR VPWR sky130_fd_sc_hd__decap_6
XTAP_507 VGND VPWR sky130_fd_sc_hd__tapvpwrvgnd_1
XFILLER_0_33_161 VGND VGND VPWR VPWR sky130_fd_sc_hd__decap_6
XFILLER_0_0_239 VGND VGND VPWR VPWR sky130_fd_sc_hd__fill_2
XTAP_529 VGND VPWR sky130_fd_sc_hd__tapvpwrvgnd_1
XFILLER_0_56_26 VGND VGND VPWR VPWR sky130_fd_sc_hd__fill_2
XTAP_518 VGND VPWR sky130_fd_sc_hd__tapvpwrvgnd_1
XFILLER_0_48_209 VGND VGND VPWR VPWR sky130_ef_sc_hd__decap_12
XFILLER_0_56_253 VGND VGND VPWR VPWR sky130_ef_sc_hd__decap_12
XFILLER_0_12_301 VGND VGND VPWR VPWR sky130_fd_sc_hd__decap_6
XFILLER_0_16_139 VGND VGND VPWR VPWR sky130_fd_sc_hd__fill_1
XFILLER_0_21_51 VGND VGND VPWR VPWR sky130_fd_sc_hd__decap_4
XFILLER_0_12_345 VGND VGND VPWR VPWR sky130_ef_sc_hd__decap_12
XFILLER_0_12_389 VGND VGND VPWR VPWR sky130_fd_sc_hd__decap_8
XFILLER_0_34_3 VGND VGND VPWR VPWR sky130_ef_sc_hd__decap_12
XFILLER_0_47_275 VGND VGND VPWR VPWR sky130_fd_sc_hd__decap_4
XFILLER_0_62_289 VGND VGND VPWR VPWR sky130_ef_sc_hd__decap_12
XFILLER_0_62_245 VGND VGND VPWR VPWR sky130_fd_sc_hd__decap_6
XFILLER_0_30_153 VGND VGND VPWR VPWR sky130_ef_sc_hd__decap_12
XFILLER_0_7_361 VGND VGND VPWR VPWR sky130_ef_sc_hd__decap_12
XFILLER_0_15_161 VGND VGND VPWR VPWR sky130_fd_sc_hd__decap_6
XFILLER_0_22_109 VGND VGND VPWR VPWR sky130_ef_sc_hd__decap_12
XFILLER_0_30_197 VGND VGND VPWR VPWR sky130_ef_sc_hd__decap_12
XFILLER_0_26_29 VGND VGND VPWR VPWR sky130_ef_sc_hd__decap_12
XFILLER_0_53_223 VGND VGND VPWR VPWR sky130_fd_sc_hd__fill_1
XFILLER_0_38_253 VGND VGND VPWR VPWR sky130_ef_sc_hd__decap_12
XTAP_348 VGND VPWR sky130_fd_sc_hd__tapvpwrvgnd_1
XTAP_337 VGND VPWR sky130_fd_sc_hd__tapvpwrvgnd_1
XTAP_304 VGND VPWR sky130_fd_sc_hd__tapvpwrvgnd_1
XTAP_315 VGND VPWR sky130_fd_sc_hd__tapvpwrvgnd_1
XTAP_326 VGND VPWR sky130_fd_sc_hd__tapvpwrvgnd_1
XTAP_359 VGND VPWR sky130_fd_sc_hd__tapvpwrvgnd_1
XFILLER_0_20_9 VGND VGND VPWR VPWR sky130_ef_sc_hd__decap_12
XFILLER_0_32_72 VGND VGND VPWR VPWR sky130_ef_sc_hd__decap_12
XFILLER_0_44_289 VGND VGND VPWR VPWR sky130_ef_sc_hd__decap_12
XFILLER_0_44_245 VGND VGND VPWR VPWR sky130_fd_sc_hd__decap_6
XFILLER_0_12_153 VGND VGND VPWR VPWR sky130_ef_sc_hd__decap_12
XFILLER_0_12_197 VGND VGND VPWR VPWR sky130_ef_sc_hd__decap_12
XFILLER_0_35_223 VGND VGND VPWR VPWR sky130_fd_sc_hd__fill_1
Xoutput42 net42 VGND VGND VPWR VPWR funct7[6] sky130_fd_sc_hd__clkbuf_4
Xoutput53 net53 VGND VGND VPWR VPWR immediateB[8] sky130_fd_sc_hd__clkbuf_4
XFILLER_0_50_237 VGND VGND VPWR VPWR sky130_ef_sc_hd__decap_12
Xoutput64 net64 VGND VGND VPWR VPWR immediateI[7] sky130_fd_sc_hd__clkbuf_4
Xoutput75 net75 VGND VGND VPWR VPWR immediateS[6] sky130_fd_sc_hd__clkbuf_4
XFILLER_0_53_27 VGND VGND VPWR VPWR sky130_ef_sc_hd__decap_12
Xoutput97 net97 VGND VGND VPWR VPWR rs2[1] sky130_fd_sc_hd__clkbuf_4
Xoutput86 net86 VGND VGND VPWR VPWR rd[0] sky130_fd_sc_hd__clkbuf_4
XFILLER_0_41_237 VGND VGND VPWR VPWR sky130_ef_sc_hd__decap_12
XFILLER_0_1_323 VGND VGND VPWR VPWR sky130_ef_sc_hd__decap_12
XFILLER_0_26_245 VGND VGND VPWR VPWR sky130_fd_sc_hd__decap_6
XFILLER_0_26_289 VGND VGND VPWR VPWR sky130_ef_sc_hd__decap_12
XTAP_178 VGND VPWR sky130_fd_sc_hd__tapvpwrvgnd_1
XTAP_167 VGND VPWR sky130_fd_sc_hd__tapvpwrvgnd_1
XTAP_156 VGND VPWR sky130_fd_sc_hd__tapvpwrvgnd_1
XTAP_145 VGND VPWR sky130_fd_sc_hd__tapvpwrvgnd_1
XTAP_134 VGND VPWR sky130_fd_sc_hd__tapvpwrvgnd_1
XTAP_189 VGND VPWR sky130_fd_sc_hd__tapvpwrvgnd_1
XFILLER_0_49_337 VGND VGND VPWR VPWR sky130_ef_sc_hd__decap_12
XFILLER_0_64_307 VGND VGND VPWR VPWR sky130_fd_sc_hd__fill_1
XFILLER_0_43_93 VGND VGND VPWR VPWR sky130_ef_sc_hd__decap_12
XFILLER_0_17_223 VGND VGND VPWR VPWR sky130_fd_sc_hd__fill_1
XFILLER_0_7_93 VGND VGND VPWR VPWR sky130_ef_sc_hd__decap_12
XFILLER_0_55_329 VGND VGND VPWR VPWR sky130_fd_sc_hd__decap_6
XFILLER_0_63_384 VGND VGND VPWR VPWR sky130_fd_sc_hd__fill_1
XFILLER_0_63_340 VGND VGND VPWR VPWR sky130_ef_sc_hd__decap_12
XFILLER_0_2_109 VGND VGND VPWR VPWR sky130_ef_sc_hd__decap_12
XFILLER_0_23_237 VGND VGND VPWR VPWR sky130_ef_sc_hd__decap_12
XFILLER_0_48_27 VGND VGND VPWR VPWR sky130_fd_sc_hd__fill_1
XFILLER_0_31_281 VGND VGND VPWR VPWR sky130_ef_sc_hd__decap_12
XFILLER_0_58_189 VGND VGND VPWR VPWR sky130_fd_sc_hd__decap_6
XFILLER_0_46_307 VGND VGND VPWR VPWR sky130_fd_sc_hd__fill_1
XFILLER_0_1_197 VGND VGND VPWR VPWR sky130_fd_sc_hd__decap_8
XFILLER_0_49_167 VGND VGND VPWR VPWR sky130_fd_sc_hd__fill_1
XFILLER_0_37_329 VGND VGND VPWR VPWR sky130_fd_sc_hd__decap_6
XFILLER_0_60_365 VGND VGND VPWR VPWR sky130_ef_sc_hd__decap_12
XFILLER_0_60_321 VGND VGND VPWR VPWR sky130_ef_sc_hd__decap_12
XFILLER_0_45_373 VGND VGND VPWR VPWR sky130_ef_sc_hd__decap_12
XFILLER_0_13_281 VGND VGND VPWR VPWR sky130_ef_sc_hd__decap_12
XFILLER_0_34_29 VGND VGND VPWR VPWR sky130_ef_sc_hd__decap_12
XFILLER_0_55_137 VGND VGND VPWR VPWR sky130_ef_sc_hd__decap_12
XFILLER_0_28_307 VGND VGND VPWR VPWR sky130_fd_sc_hd__fill_1
XFILLER_0_63_181 VGND VGND VPWR VPWR sky130_ef_sc_hd__decap_12
X_65_ net19 VGND VGND VPWR VPWR net50 sky130_fd_sc_hd__clkbuf_1
XFILLER_0_19_329 VGND VGND VPWR VPWR sky130_fd_sc_hd__decap_6
XFILLER_0_42_365 VGND VGND VPWR VPWR sky130_ef_sc_hd__decap_12
XFILLER_0_42_321 VGND VGND VPWR VPWR sky130_ef_sc_hd__decap_12
XFILLER_0_40_83 VGND VGND VPWR VPWR sky130_fd_sc_hd__fill_1
XFILLER_0_27_373 VGND VGND VPWR VPWR sky130_ef_sc_hd__decap_12
XFILLER_0_6_245 VGND VGND VPWR VPWR sky130_fd_sc_hd__decap_6
XFILLER_0_6_289 VGND VGND VPWR VPWR sky130_ef_sc_hd__decap_12
XFILLER_0_49_81 VGND VGND VPWR VPWR sky130_ef_sc_hd__decap_12
XFILLER_0_10_251 VGND VGND VPWR VPWR sky130_fd_sc_hd__fill_1
XFILLER_0_4_83 VGND VGND VPWR VPWR sky130_fd_sc_hd__fill_1
XFILLER_0_37_137 VGND VGND VPWR VPWR sky130_ef_sc_hd__decap_12
XFILLER_0_60_195 VGND VGND VPWR VPWR sky130_fd_sc_hd__fill_1
XFILLER_0_45_181 VGND VGND VPWR VPWR sky130_ef_sc_hd__decap_12
XFILLER_0_61_27 VGND VGND VPWR VPWR sky130_ef_sc_hd__decap_12
XFILLER_0_45_39 VGND VGND VPWR VPWR sky130_ef_sc_hd__decap_12
XFILLER_0_9_39 VGND VGND VPWR VPWR sky130_ef_sc_hd__decap_12
XFILLER_0_24_321 VGND VGND VPWR VPWR sky130_ef_sc_hd__decap_12
XFILLER_0_3_237 VGND VGND VPWR VPWR sky130_ef_sc_hd__decap_12
XFILLER_0_10_53 VGND VGND VPWR VPWR sky130_ef_sc_hd__decap_12
XFILLER_0_10_97 VGND VGND VPWR VPWR sky130_ef_sc_hd__decap_12
XFILLER_0_24_365 VGND VGND VPWR VPWR sky130_ef_sc_hd__decap_12
X_48_ net16 VGND VGND VPWR VPWR net99 sky130_fd_sc_hd__clkbuf_2
XFILLER_0_19_51 VGND VGND VPWR VPWR sky130_fd_sc_hd__decap_4
XFILLER_0_59_273 VGND VGND VPWR VPWR sky130_fd_sc_hd__decap_6
XFILLER_0_19_137 VGND VGND VPWR VPWR sky130_ef_sc_hd__decap_12
XFILLER_0_51_93 VGND VGND VPWR VPWR sky130_ef_sc_hd__decap_12
XFILLER_0_42_195 VGND VGND VPWR VPWR sky130_fd_sc_hd__fill_1
XFILLER_0_27_181 VGND VGND VPWR VPWR sky130_ef_sc_hd__decap_12
XFILLER_0_30_357 VGND VGND VPWR VPWR sky130_fd_sc_hd__decap_6
XFILLER_0_53_405 VGND VGND VPWR VPWR sky130_fd_sc_hd__fill_2
XTAP_519 VGND VPWR sky130_fd_sc_hd__tapvpwrvgnd_1
XTAP_508 VGND VPWR sky130_fd_sc_hd__tapvpwrvgnd_1
XFILLER_0_21_335 VGND VGND VPWR VPWR sky130_fd_sc_hd__fill_1
XFILLER_0_56_265 VGND VGND VPWR VPWR sky130_ef_sc_hd__decap_12
XFILLER_0_56_221 VGND VGND VPWR VPWR sky130_ef_sc_hd__decap_12
XFILLER_0_44_405 VGND VGND VPWR VPWR sky130_fd_sc_hd__fill_2
XFILLER_0_29_402 VGND VGND VPWR VPWR sky130_fd_sc_hd__decap_4
XFILLER_0_24_195 VGND VGND VPWR VPWR sky130_fd_sc_hd__fill_1
XFILLER_0_12_357 VGND VGND VPWR VPWR sky130_fd_sc_hd__decap_6
XFILLER_0_27_3 VGND VGND VPWR VPWR sky130_ef_sc_hd__decap_12
XFILLER_0_35_405 VGND VGND VPWR VPWR sky130_fd_sc_hd__fill_2
XFILLER_0_7_373 VGND VGND VPWR VPWR sky130_ef_sc_hd__decap_12
XFILLER_0_30_165 VGND VGND VPWR VPWR sky130_ef_sc_hd__decap_12
XFILLER_0_30_121 VGND VGND VPWR VPWR sky130_ef_sc_hd__decap_12
XFILLER_0_42_29 VGND VGND VPWR VPWR sky130_ef_sc_hd__decap_12
XFILLER_0_38_265 VGND VGND VPWR VPWR sky130_ef_sc_hd__decap_12
XFILLER_0_38_221 VGND VGND VPWR VPWR sky130_ef_sc_hd__decap_12
XFILLER_0_53_279 VGND VGND VPWR VPWR sky130_fd_sc_hd__fill_1
XTAP_349 VGND VPWR sky130_fd_sc_hd__tapvpwrvgnd_1
XTAP_338 VGND VPWR sky130_fd_sc_hd__tapvpwrvgnd_1
XFILLER_0_6_29 VGND VGND VPWR VPWR sky130_ef_sc_hd__decap_12
XTAP_305 VGND VPWR sky130_fd_sc_hd__tapvpwrvgnd_1
XTAP_316 VGND VPWR sky130_fd_sc_hd__tapvpwrvgnd_1
XTAP_327 VGND VPWR sky130_fd_sc_hd__tapvpwrvgnd_1
XFILLER_0_16_41 VGND VGND VPWR VPWR sky130_ef_sc_hd__decap_12
XFILLER_0_16_85 VGND VGND VPWR VPWR sky130_ef_sc_hd__decap_12
XFILLER_0_4_365 VGND VGND VPWR VPWR sky130_ef_sc_hd__decap_12
XFILLER_0_4_321 VGND VGND VPWR VPWR sky130_ef_sc_hd__decap_12
XFILLER_0_12_121 VGND VGND VPWR VPWR sky130_ef_sc_hd__decap_12
XFILLER_0_12_165 VGND VGND VPWR VPWR sky130_ef_sc_hd__decap_12
XFILLER_0_57_81 VGND VGND VPWR VPWR sky130_ef_sc_hd__decap_12
XFILLER_0_50_249 VGND VGND VPWR VPWR sky130_fd_sc_hd__decap_3
XFILLER_0_35_279 VGND VGND VPWR VPWR sky130_fd_sc_hd__fill_1
XFILLER_0_7_181 VGND VGND VPWR VPWR sky130_ef_sc_hd__decap_12
Xoutput76 net76 VGND VGND VPWR VPWR immediateS[7] sky130_fd_sc_hd__clkbuf_4
Xoutput43 net43 VGND VGND VPWR VPWR immediateB[0] sky130_fd_sc_hd__clkbuf_4
Xoutput65 net65 VGND VGND VPWR VPWR immediateI[8] sky130_fd_sc_hd__clkbuf_4
Xoutput87 net87 VGND VGND VPWR VPWR rd[1] sky130_fd_sc_hd__clkbuf_4
Xoutput54 net54 VGND VGND VPWR VPWR immediateB[9] sky130_fd_sc_hd__clkbuf_4
Xoutput98 net98 VGND VGND VPWR VPWR rs2[2] sky130_fd_sc_hd__clkbuf_4
XFILLER_0_53_39 VGND VGND VPWR VPWR sky130_fd_sc_hd__fill_2
XFILLER_0_41_249 VGND VGND VPWR VPWR sky130_ef_sc_hd__decap_12
XFILLER_0_41_205 VGND VGND VPWR VPWR sky130_ef_sc_hd__decap_12
XFILLER_0_1_335 VGND VGND VPWR VPWR sky130_fd_sc_hd__fill_1
XTAP_168 VGND VPWR sky130_fd_sc_hd__tapvpwrvgnd_1
XTAP_157 VGND VPWR sky130_fd_sc_hd__tapvpwrvgnd_1
XTAP_135 VGND VPWR sky130_fd_sc_hd__tapvpwrvgnd_1
XTAP_146 VGND VPWR sky130_fd_sc_hd__tapvpwrvgnd_1
XTAP_179 VGND VPWR sky130_fd_sc_hd__tapvpwrvgnd_1
XFILLER_0_27_51 VGND VGND VPWR VPWR sky130_fd_sc_hd__decap_4
XFILLER_0_49_349 VGND VGND VPWR VPWR sky130_ef_sc_hd__decap_12
XFILLER_0_49_305 VGND VGND VPWR VPWR sky130_ef_sc_hd__decap_12
XFILLER_0_57_393 VGND VGND VPWR VPWR sky130_fd_sc_hd__decap_8
XFILLER_0_32_216 VGND VGND VPWR VPWR sky130_ef_sc_hd__decap_12
XFILLER_0_17_279 VGND VGND VPWR VPWR sky130_fd_sc_hd__fill_1
XFILLER_0_4_195 VGND VGND VPWR VPWR sky130_fd_sc_hd__fill_1
XFILLER_0_63_352 VGND VGND VPWR VPWR sky130_fd_sc_hd__decap_8
XFILLER_0_23_205 VGND VGND VPWR VPWR sky130_ef_sc_hd__decap_12
XFILLER_0_23_249 VGND VGND VPWR VPWR sky130_ef_sc_hd__decap_12
XFILLER_0_64_16 VGND VGND VPWR VPWR sky130_ef_sc_hd__decap_12
XFILLER_0_31_293 VGND VGND VPWR VPWR sky130_ef_sc_hd__decap_12
XFILLER_0_54_363 VGND VGND VPWR VPWR sky130_fd_sc_hd__fill_1
XFILLER_0_39_393 VGND VGND VPWR VPWR sky130_fd_sc_hd__decap_8
XFILLER_0_1_110 VGND VGND VPWR VPWR sky130_fd_sc_hd__fill_2
XFILLER_0_38_83 VGND VGND VPWR VPWR sky130_fd_sc_hd__fill_1
XFILLER_0_64_149 VGND VGND VPWR VPWR sky130_fd_sc_hd__fill_1
XFILLER_0_64_127 VGND VGND VPWR VPWR sky130_fd_sc_hd__fill_2
XFILLER_0_49_113 VGND VGND VPWR VPWR sky130_ef_sc_hd__decap_12
XFILLER_0_60_377 VGND VGND VPWR VPWR sky130_ef_sc_hd__decap_12
XFILLER_0_60_333 VGND VGND VPWR VPWR sky130_ef_sc_hd__decap_12
XFILLER_0_45_385 VGND VGND VPWR VPWR sky130_fd_sc_hd__decap_6
XFILLER_0_13_293 VGND VGND VPWR VPWR sky130_ef_sc_hd__decap_12
XFILLER_0_55_149 VGND VGND VPWR VPWR sky130_ef_sc_hd__decap_12
XFILLER_0_55_105 VGND VGND VPWR VPWR sky130_fd_sc_hd__decap_6
XFILLER_0_50_29 VGND VGND VPWR VPWR sky130_ef_sc_hd__decap_12
XFILLER_0_50_18 VGND VGND VPWR VPWR sky130_fd_sc_hd__decap_8
XFILLER_0_36_363 VGND VGND VPWR VPWR sky130_fd_sc_hd__fill_1
XFILLER_0_63_193 VGND VGND VPWR VPWR sky130_fd_sc_hd__decap_8
X_64_ net18 VGND VGND VPWR VPWR net49 sky130_fd_sc_hd__buf_1
XFILLER_0_24_41 VGND VGND VPWR VPWR sky130_ef_sc_hd__decap_12
XFILLER_0_24_85 VGND VGND VPWR VPWR sky130_ef_sc_hd__decap_12
XFILLER_0_42_377 VGND VGND VPWR VPWR sky130_ef_sc_hd__decap_12
XFILLER_0_42_333 VGND VGND VPWR VPWR sky130_ef_sc_hd__decap_12
XFILLER_0_27_385 VGND VGND VPWR VPWR sky130_fd_sc_hd__decap_6
XFILLER_0_57_3 VGND VGND VPWR VPWR sky130_fd_sc_hd__decap_4
XFILLER_0_49_93 VGND VGND VPWR VPWR sky130_ef_sc_hd__decap_12
XFILLER_0_37_149 VGND VGND VPWR VPWR sky130_ef_sc_hd__decap_12
XFILLER_0_37_105 VGND VGND VPWR VPWR sky130_fd_sc_hd__decap_6
XFILLER_0_18_363 VGND VGND VPWR VPWR sky130_fd_sc_hd__fill_1
XFILLER_0_60_141 VGND VGND VPWR VPWR sky130_ef_sc_hd__decap_12
XFILLER_0_45_193 VGND VGND VPWR VPWR sky130_ef_sc_hd__decap_12
XFILLER_0_29_19 VGND VGND VPWR VPWR sky130_ef_sc_hd__decap_12
XFILLER_0_61_39 VGND VGND VPWR VPWR sky130_ef_sc_hd__decap_12
XFILLER_0_3_249 VGND VGND VPWR VPWR sky130_ef_sc_hd__decap_12
XFILLER_0_3_205 VGND VGND VPWR VPWR sky130_ef_sc_hd__decap_12
XFILLER_0_24_333 VGND VGND VPWR VPWR sky130_ef_sc_hd__decap_12
XFILLER_0_24_377 VGND VGND VPWR VPWR sky130_ef_sc_hd__decap_12
XFILLER_0_10_65 VGND VGND VPWR VPWR sky130_ef_sc_hd__decap_12
XFILLER_0_29_7 VGND VGND VPWR VPWR sky130_ef_sc_hd__decap_12
X_47_ net15 VGND VGND VPWR VPWR net98 sky130_fd_sc_hd__clkbuf_2
XFILLER_0_19_105 VGND VGND VPWR VPWR sky130_fd_sc_hd__decap_6
XFILLER_0_19_149 VGND VGND VPWR VPWR sky130_ef_sc_hd__decap_12
XFILLER_0_42_141 VGND VGND VPWR VPWR sky130_ef_sc_hd__decap_12
XFILLER_0_27_193 VGND VGND VPWR VPWR sky130_ef_sc_hd__decap_12
XTAP_509 VGND VPWR sky130_fd_sc_hd__tapvpwrvgnd_1
XFILLER_0_56_277 VGND VGND VPWR VPWR sky130_ef_sc_hd__decap_12
XFILLER_0_56_233 VGND VGND VPWR VPWR sky130_ef_sc_hd__decap_12
XFILLER_0_24_141 VGND VGND VPWR VPWR sky130_ef_sc_hd__decap_12
XFILLER_0_46_83 VGND VGND VPWR VPWR sky130_fd_sc_hd__fill_1
XFILLER_0_7_385 VGND VGND VPWR VPWR sky130_fd_sc_hd__decap_6
XFILLER_0_30_177 VGND VGND VPWR VPWR sky130_ef_sc_hd__decap_12
XFILLER_0_30_133 VGND VGND VPWR VPWR sky130_fd_sc_hd__decap_6
XFILLER_0_11_391 VGND VGND VPWR VPWR sky130_fd_sc_hd__fill_1
XFILLER_0_38_277 VGND VGND VPWR VPWR sky130_ef_sc_hd__decap_12
XFILLER_0_38_233 VGND VGND VPWR VPWR sky130_ef_sc_hd__decap_12
XFILLER_0_53_225 VGND VGND VPWR VPWR sky130_ef_sc_hd__decap_12
XFILLER_0_21_111 VGND VGND VPWR VPWR sky130_fd_sc_hd__fill_1
XTAP_339 VGND VPWR sky130_fd_sc_hd__tapvpwrvgnd_1
XTAP_306 VGND VPWR sky130_fd_sc_hd__tapvpwrvgnd_1
XTAP_317 VGND VPWR sky130_fd_sc_hd__tapvpwrvgnd_1
XTAP_328 VGND VPWR sky130_fd_sc_hd__tapvpwrvgnd_1
XFILLER_0_16_53 VGND VGND VPWR VPWR sky130_ef_sc_hd__decap_12
XFILLER_0_16_97 VGND VGND VPWR VPWR sky130_ef_sc_hd__decap_12
XFILLER_0_32_85 VGND VGND VPWR VPWR sky130_ef_sc_hd__decap_12
XFILLER_0_32_41 VGND VGND VPWR VPWR sky130_ef_sc_hd__decap_12
XFILLER_0_4_333 VGND VGND VPWR VPWR sky130_ef_sc_hd__decap_12
XFILLER_0_4_377 VGND VGND VPWR VPWR sky130_ef_sc_hd__decap_12
XFILLER_0_12_133 VGND VGND VPWR VPWR sky130_fd_sc_hd__decap_6
XFILLER_0_12_177 VGND VGND VPWR VPWR sky130_ef_sc_hd__decap_12
XFILLER_0_57_93 VGND VGND VPWR VPWR sky130_ef_sc_hd__decap_12
XFILLER_0_35_225 VGND VGND VPWR VPWR sky130_ef_sc_hd__decap_12
XFILLER_0_7_193 VGND VGND VPWR VPWR sky130_ef_sc_hd__decap_12
Xoutput55 net55 VGND VGND VPWR VPWR immediateI[0] sky130_fd_sc_hd__clkbuf_4
Xoutput99 net99 VGND VGND VPWR VPWR rs2[3] sky130_fd_sc_hd__clkbuf_4
Xoutput44 net44 VGND VGND VPWR VPWR immediateB[10] sky130_fd_sc_hd__clkbuf_4
Xoutput88 net88 VGND VGND VPWR VPWR rd[2] sky130_fd_sc_hd__clkbuf_4
XFILLER_0_9_3 VGND VGND VPWR VPWR sky130_ef_sc_hd__decap_12
Xoutput33 net33 VGND VGND VPWR VPWR funct3[0] sky130_fd_sc_hd__buf_2
Xoutput77 net77 VGND VGND VPWR VPWR immediateS[8] sky130_fd_sc_hd__clkbuf_4
Xoutput66 net66 VGND VGND VPWR VPWR immediateI[9] sky130_fd_sc_hd__clkbuf_4
XFILLER_0_41_217 VGND VGND VPWR VPWR sky130_fd_sc_hd__decap_6
XTAP_169 VGND VPWR sky130_fd_sc_hd__tapvpwrvgnd_1
XTAP_158 VGND VPWR sky130_fd_sc_hd__tapvpwrvgnd_1
XTAP_136 VGND VPWR sky130_fd_sc_hd__tapvpwrvgnd_1
XTAP_147 VGND VPWR sky130_fd_sc_hd__tapvpwrvgnd_1
XFILLER_0_64_309 VGND VGND VPWR VPWR sky130_fd_sc_hd__decap_8
XFILLER_0_57_361 VGND VGND VPWR VPWR sky130_ef_sc_hd__decap_12
XFILLER_0_49_317 VGND VGND VPWR VPWR sky130_ef_sc_hd__decap_12
XFILLER_0_43_51 VGND VGND VPWR VPWR sky130_fd_sc_hd__decap_4
XFILLER_0_32_228 VGND VGND VPWR VPWR sky130_ef_sc_hd__decap_12
XFILLER_0_4_141 VGND VGND VPWR VPWR sky130_ef_sc_hd__decap_12
XFILLER_0_17_225 VGND VGND VPWR VPWR sky130_ef_sc_hd__decap_12
XFILLER_0_0_380 VGND VGND VPWR VPWR sky130_ef_sc_hd__decap_12
XFILLER_0_63_364 VGND VGND VPWR VPWR sky130_ef_sc_hd__decap_12
XFILLER_0_48_29 VGND VGND VPWR VPWR sky130_ef_sc_hd__decap_12
XFILLER_0_31_261 VGND VGND VPWR VPWR sky130_ef_sc_hd__decap_12
XFILLER_0_23_217 VGND VGND VPWR VPWR sky130_fd_sc_hd__decap_6
XFILLER_0_46_309 VGND VGND VPWR VPWR sky130_ef_sc_hd__decap_12
XFILLER_0_39_361 VGND VGND VPWR VPWR sky130_ef_sc_hd__decap_12
XFILLER_0_1_122 VGND VGND VPWR VPWR sky130_ef_sc_hd__decap_12
XFILLER_0_1_166 VGND VGND VPWR VPWR sky130_fd_sc_hd__fill_2
XFILLER_0_10_401 VGND VGND VPWR VPWR sky130_fd_sc_hd__decap_6
XFILLER_0_54_83 VGND VGND VPWR VPWR sky130_fd_sc_hd__fill_1
XFILLER_0_64_139 VGND VGND VPWR VPWR sky130_fd_sc_hd__fill_1
XFILLER_0_49_169 VGND VGND VPWR VPWR sky130_ef_sc_hd__decap_12
XFILLER_0_49_125 VGND VGND VPWR VPWR sky130_ef_sc_hd__decap_12
XFILLER_0_60_389 VGND VGND VPWR VPWR sky130_ef_sc_hd__decap_12
XFILLER_0_60_345 VGND VGND VPWR VPWR sky130_ef_sc_hd__decap_12
XFILLER_0_60_301 VGND VGND VPWR VPWR sky130_fd_sc_hd__decap_6
XFILLER_0_13_261 VGND VGND VPWR VPWR sky130_ef_sc_hd__decap_12
XFILLER_0_20_209 VGND VGND VPWR VPWR sky130_ef_sc_hd__decap_12
XFILLER_0_28_309 VGND VGND VPWR VPWR sky130_ef_sc_hd__decap_12
XFILLER_0_36_397 VGND VGND VPWR VPWR sky130_fd_sc_hd__fill_1
X_63_ net3 VGND VGND VPWR VPWR net48 sky130_fd_sc_hd__buf_1
XFILLER_0_46_139 VGND VGND VPWR VPWR sky130_fd_sc_hd__fill_1
XFILLER_0_24_53 VGND VGND VPWR VPWR sky130_ef_sc_hd__decap_12
XFILLER_0_24_97 VGND VGND VPWR VPWR sky130_ef_sc_hd__decap_12
XFILLER_0_42_389 VGND VGND VPWR VPWR sky130_ef_sc_hd__decap_12
XFILLER_0_42_345 VGND VGND VPWR VPWR sky130_ef_sc_hd__decap_12
XFILLER_0_42_301 VGND VGND VPWR VPWR sky130_fd_sc_hd__decap_6
XFILLER_0_40_85 VGND VGND VPWR VPWR sky130_ef_sc_hd__decap_12
XFILLER_0_40_41 VGND VGND VPWR VPWR sky130_ef_sc_hd__decap_12
XFILLER_0_4_85 VGND VGND VPWR VPWR sky130_ef_sc_hd__decap_12
XFILLER_0_4_41 VGND VGND VPWR VPWR sky130_ef_sc_hd__decap_12
XFILLER_0_10_253 VGND VGND VPWR VPWR sky130_ef_sc_hd__decap_12
XFILLER_0_52_109 VGND VGND VPWR VPWR sky130_ef_sc_hd__decap_12
XFILLER_0_45_161 VGND VGND VPWR VPWR sky130_fd_sc_hd__decap_6
XFILLER_0_60_197 VGND VGND VPWR VPWR sky130_ef_sc_hd__decap_12
XFILLER_0_60_153 VGND VGND VPWR VPWR sky130_ef_sc_hd__decap_12
XFILLER_0_28_139 VGND VGND VPWR VPWR sky130_fd_sc_hd__fill_1
XFILLER_0_3_217 VGND VGND VPWR VPWR sky130_fd_sc_hd__decap_6
XFILLER_0_10_77 VGND VGND VPWR VPWR sky130_fd_sc_hd__decap_6
XFILLER_0_24_301 VGND VGND VPWR VPWR sky130_fd_sc_hd__decap_6
XFILLER_0_24_345 VGND VGND VPWR VPWR sky130_ef_sc_hd__decap_12
XFILLER_0_24_389 VGND VGND VPWR VPWR sky130_ef_sc_hd__decap_12
X_46_ net14 VGND VGND VPWR VPWR net97 sky130_fd_sc_hd__clkbuf_2
XFILLER_0_51_51 VGND VGND VPWR VPWR sky130_fd_sc_hd__decap_4
XFILLER_0_34_109 VGND VGND VPWR VPWR sky130_ef_sc_hd__decap_12
XFILLER_0_27_161 VGND VGND VPWR VPWR sky130_fd_sc_hd__decap_6
XFILLER_0_42_197 VGND VGND VPWR VPWR sky130_ef_sc_hd__decap_12
XFILLER_0_42_153 VGND VGND VPWR VPWR sky130_ef_sc_hd__decap_12
XFILLER_0_21_337 VGND VGND VPWR VPWR sky130_ef_sc_hd__decap_12
XFILLER_0_56_29 VGND VGND VPWR VPWR sky130_ef_sc_hd__decap_12
XFILLER_0_56_18 VGND VGND VPWR VPWR sky130_fd_sc_hd__decap_8
XFILLER_0_56_289 VGND VGND VPWR VPWR sky130_ef_sc_hd__decap_12
XFILLER_0_56_245 VGND VGND VPWR VPWR sky130_fd_sc_hd__decap_6
XFILLER_0_8_309 VGND VGND VPWR VPWR sky130_ef_sc_hd__decap_12
XFILLER_0_16_109 VGND VGND VPWR VPWR sky130_ef_sc_hd__decap_12
XFILLER_0_24_153 VGND VGND VPWR VPWR sky130_ef_sc_hd__decap_12
XFILLER_0_24_197 VGND VGND VPWR VPWR sky130_ef_sc_hd__decap_12
XFILLER_0_62_83 VGND VGND VPWR VPWR sky130_fd_sc_hd__fill_1
XFILLER_0_47_223 VGND VGND VPWR VPWR sky130_fd_sc_hd__fill_1
X_29_ net12 VGND VGND VPWR VPWR net80 sky130_fd_sc_hd__clkbuf_1
XFILLER_0_30_189 VGND VGND VPWR VPWR sky130_fd_sc_hd__decap_6
XFILLER_0_53_237 VGND VGND VPWR VPWR sky130_ef_sc_hd__decap_12
XFILLER_0_38_289 VGND VGND VPWR VPWR sky130_ef_sc_hd__decap_12
XFILLER_0_38_245 VGND VGND VPWR VPWR sky130_fd_sc_hd__decap_6
XFILLER_0_61_281 VGND VGND VPWR VPWR sky130_ef_sc_hd__decap_12
XFILLER_0_21_167 VGND VGND VPWR VPWR sky130_fd_sc_hd__fill_1
XTAP_307 VGND VPWR sky130_fd_sc_hd__tapvpwrvgnd_1
XTAP_318 VGND VPWR sky130_fd_sc_hd__tapvpwrvgnd_1
XTAP_329 VGND VPWR sky130_fd_sc_hd__tapvpwrvgnd_1
XFILLER_0_29_223 VGND VGND VPWR VPWR sky130_fd_sc_hd__fill_1
XFILLER_0_16_21 VGND VGND VPWR VPWR sky130_fd_sc_hd__decap_6
XFILLER_0_16_65 VGND VGND VPWR VPWR sky130_ef_sc_hd__decap_12
XFILLER_0_32_97 VGND VGND VPWR VPWR sky130_ef_sc_hd__decap_12
XFILLER_0_32_53 VGND VGND VPWR VPWR sky130_fd_sc_hd__decap_4
XFILLER_0_4_345 VGND VGND VPWR VPWR sky130_ef_sc_hd__decap_12
XFILLER_0_4_301 VGND VGND VPWR VPWR sky130_fd_sc_hd__decap_6
XFILLER_0_8_139 VGND VGND VPWR VPWR sky130_fd_sc_hd__fill_1
XFILLER_0_4_389 VGND VGND VPWR VPWR sky130_ef_sc_hd__decap_12
XFILLER_0_12_189 VGND VGND VPWR VPWR sky130_fd_sc_hd__decap_6
XFILLER_0_35_237 VGND VGND VPWR VPWR sky130_ef_sc_hd__decap_12
Xoutput34 net34 VGND VGND VPWR VPWR funct3[1] sky130_fd_sc_hd__clkbuf_4
XFILLER_0_43_281 VGND VGND VPWR VPWR sky130_ef_sc_hd__decap_12
XFILLER_0_7_161 VGND VGND VPWR VPWR sky130_fd_sc_hd__decap_6
Xoutput78 net78 VGND VGND VPWR VPWR immediateS[9] sky130_fd_sc_hd__clkbuf_4
Xoutput45 net45 VGND VGND VPWR VPWR immediateB[11] sky130_fd_sc_hd__clkbuf_4
Xoutput56 net56 VGND VGND VPWR VPWR immediateI[10] sky130_fd_sc_hd__clkbuf_4
Xoutput89 net89 VGND VGND VPWR VPWR rd[3] sky130_fd_sc_hd__clkbuf_4
Xoutput67 net67 VGND VGND VPWR VPWR immediateS[0] sky130_fd_sc_hd__clkbuf_4
XFILLER_0_58_307 VGND VGND VPWR VPWR sky130_fd_sc_hd__fill_1
XFILLER_0_1_337 VGND VGND VPWR VPWR sky130_ef_sc_hd__decap_12
XFILLER_0_1_304 VGND VGND VPWR VPWR sky130_ef_sc_hd__decap_12
XTAP_148 VGND VPWR sky130_fd_sc_hd__tapvpwrvgnd_1
XTAP_137 VGND VPWR sky130_fd_sc_hd__tapvpwrvgnd_1
XTAP_159 VGND VPWR sky130_fd_sc_hd__tapvpwrvgnd_1
XFILLER_0_57_373 VGND VGND VPWR VPWR sky130_ef_sc_hd__decap_12
XFILLER_0_49_329 VGND VGND VPWR VPWR sky130_fd_sc_hd__decap_6
XFILLER_0_17_237 VGND VGND VPWR VPWR sky130_ef_sc_hd__decap_12
XFILLER_0_40_251 VGND VGND VPWR VPWR sky130_fd_sc_hd__fill_1
XFILLER_0_4_197 VGND VGND VPWR VPWR sky130_ef_sc_hd__decap_12
XFILLER_0_4_153 VGND VGND VPWR VPWR sky130_ef_sc_hd__decap_12
XFILLER_0_7_41 VGND VGND VPWR VPWR sky130_ef_sc_hd__decap_12
XFILLER_0_25_281 VGND VGND VPWR VPWR sky130_ef_sc_hd__decap_12
XFILLER_0_63_376 VGND VGND VPWR VPWR sky130_fd_sc_hd__decap_8
XFILLER_0_31_273 VGND VGND VPWR VPWR sky130_fd_sc_hd__decap_6
XFILLER_0_64_29 VGND VGND VPWR VPWR sky130_fd_sc_hd__fill_2
XFILLER_0_54_321 VGND VGND VPWR VPWR sky130_ef_sc_hd__decap_12
XFILLER_0_39_373 VGND VGND VPWR VPWR sky130_ef_sc_hd__decap_12
XFILLER_0_13_55 VGND VGND VPWR VPWR sky130_fd_sc_hd__fill_1
XFILLER_0_54_365 VGND VGND VPWR VPWR sky130_ef_sc_hd__decap_12
XFILLER_0_1_134 VGND VGND VPWR VPWR sky130_ef_sc_hd__decap_12
XFILLER_0_22_251 VGND VGND VPWR VPWR sky130_fd_sc_hd__fill_1
XFILLER_0_38_85 VGND VGND VPWR VPWR sky130_ef_sc_hd__decap_12
XFILLER_0_38_41 VGND VGND VPWR VPWR sky130_ef_sc_hd__decap_12