*SPEF "ieee 1481-1999"
*DESIGN "program_counter"
*DATE "11:11:11 Fri 11 11, 1111"
*VENDOR "OpenRCX"
*PROGRAM "Parallel Extraction"
*VERSION "1.0"
*DESIGN_FLOW "NAME_SCOPE LOCAL" "PIN_CAP NONE"
*DIVIDER /
*DELIMITER :
*BUS_DELIMITER []
*T_UNIT 1 NS
*C_UNIT 1 PF
*R_UNIT 1 OHM
*L_UNIT 1 HENRY

*NAME_MAP
*3 addition[0]
*4 addition[10]
*5 addition[11]
*6 addition[1]
*7 addition[2]
*8 addition[3]
*9 addition[4]
*10 addition[5]
*11 addition[6]
*12 addition[7]
*13 addition[8]
*14 addition[9]
*15 clk
*16 count[0]
*17 count[10]
*18 count[11]
*19 count[1]
*20 count[2]
*21 count[3]
*22 count[4]
*23 count[5]
*24 count[6]
*25 count[7]
*26 count[8]
*27 count[9]
*28 reset
*29 _000_
*30 _001_
*31 _002_
*32 _003_
*33 _004_
*34 _005_
*35 _006_
*36 _007_
*37 _008_
*38 _009_
*39 _010_
*40 _011_
*41 _012_
*42 _013_
*43 _014_
*44 _015_
*45 _016_
*46 _017_
*47 _018_
*48 _019_
*49 _020_
*50 _021_
*51 _022_
*52 _023_
*53 _024_
*54 _025_
*55 _026_
*56 _027_
*57 _028_
*58 _029_
*59 _030_
*60 _031_
*61 _032_
*62 _033_
*63 _034_
*64 _035_
*65 _036_
*66 _037_
*67 _038_
*68 _039_
*69 _040_
*70 _041_
*71 _042_
*72 _043_
*73 _044_
*74 _045_
*75 _046_
*76 _047_
*77 _048_
*78 _049_
*79 _050_
*80 _051_
*81 _052_
*82 _053_
*83 _054_
*84 _055_
*85 _056_
*86 _057_
*87 _058_
*88 _059_
*89 _060_
*90 _061_
*91 _062_
*92 _063_
*93 _064_
*94 _065_
*95 _066_
*96 _067_
*97 _068_
*98 _069_
*99 _070_
*100 _071_
*101 _072_
*102 _073_
*103 _074_
*104 _075_
*105 _076_
*106 _077_
*107 _078_
*108 _079_
*109 _080_
*110 _081_
*111 _082_
*112 _083_
*113 _084_
*114 _085_
*115 _086_
*116 _087_
*117 clknet_0_clk
*118 clknet_1_0__leaf_clk
*119 clknet_1_1__leaf_clk
*120 net1
*121 net10
*122 net11
*123 net12
*124 net13
*125 net14
*126 net15
*127 net16
*128 net17
*129 net18
*130 net19
*131 net2
*132 net20
*133 net21
*134 net22
*135 net23
*136 net24
*137 net25
*138 net26
*139 net3
*140 net4
*141 net5
*142 net6
*143 net7
*144 net8
*145 net9
*146 set\[0\]
*147 FILLER_0_0_109
*148 FILLER_0_0_113
*149 FILLER_0_0_121
*150 FILLER_0_0_133
*151 FILLER_0_0_139
*152 FILLER_0_0_141
*153 FILLER_0_0_153
*154 FILLER_0_0_165
*155 FILLER_0_0_169
*156 FILLER_0_0_177
*157 FILLER_0_0_181
*158 FILLER_0_0_193
*159 FILLER_0_0_197
*160 FILLER_0_0_209
*161 FILLER_0_0_21
*162 FILLER_0_0_221
*163 FILLER_0_0_225
*164 FILLER_0_0_237
*165 FILLER_0_0_249
*166 FILLER_0_0_259
*167 FILLER_0_0_27
*168 FILLER_0_0_271
*169 FILLER_0_0_279
*170 FILLER_0_0_281
*171 FILLER_0_0_289
*172 FILLER_0_0_29
*173 FILLER_0_0_325
*174 FILLER_0_0_333
*175 FILLER_0_0_337
*176 FILLER_0_0_349
*177 FILLER_0_0_361
*178 FILLER_0_0_365
*179 FILLER_0_0_373
*180 FILLER_0_0_377
*181 FILLER_0_0_389
*182 FILLER_0_0_393
*183 FILLER_0_0_401
*184 FILLER_0_0_41
*185 FILLER_0_0_53
*186 FILLER_0_0_63
*187 FILLER_0_0_75
*188 FILLER_0_0_83
*189 FILLER_0_0_85
*190 FILLER_0_0_9
*191 FILLER_0_0_97
*192 FILLER_0_10_109
*193 FILLER_0_10_121
*194 FILLER_0_10_133
*195 FILLER_0_10_139
*196 FILLER_0_10_141
*197 FILLER_0_10_15
*198 FILLER_0_10_153
*199 FILLER_0_10_165
*200 FILLER_0_10_177
*201 FILLER_0_10_189
*202 FILLER_0_10_195
*203 FILLER_0_10_197
*204 FILLER_0_10_209
*205 FILLER_0_10_221
*206 FILLER_0_10_233
*207 FILLER_0_10_237
*208 FILLER_0_10_246
*209 FILLER_0_10_253
*210 FILLER_0_10_265
*211 FILLER_0_10_27
*212 FILLER_0_10_276
*213 FILLER_0_10_284
*214 FILLER_0_10_29
*215 FILLER_0_10_291
*216 FILLER_0_10_299
*217 FILLER_0_10_3
*218 FILLER_0_10_306
*219 FILLER_0_10_309
*220 FILLER_0_10_345
*221 FILLER_0_10_357
*222 FILLER_0_10_363
*223 FILLER_0_10_365
*224 FILLER_0_10_377
*225 FILLER_0_10_389
*226 FILLER_0_10_401
*227 FILLER_0_10_41
*228 FILLER_0_10_53
*229 FILLER_0_10_65
*230 FILLER_0_10_77
*231 FILLER_0_10_83
*232 FILLER_0_10_85
*233 FILLER_0_10_97
*234 FILLER_0_11_105
*235 FILLER_0_11_111
*236 FILLER_0_11_113
*237 FILLER_0_11_125
*238 FILLER_0_11_137
*239 FILLER_0_11_149
*240 FILLER_0_11_15
*241 FILLER_0_11_161
*242 FILLER_0_11_167
*243 FILLER_0_11_169
*244 FILLER_0_11_181
*245 FILLER_0_11_193
*246 FILLER_0_11_205
*247 FILLER_0_11_217
*248 FILLER_0_11_223
*249 FILLER_0_11_225
*250 FILLER_0_11_237
*251 FILLER_0_11_249
*252 FILLER_0_11_27
*253 FILLER_0_11_279
*254 FILLER_0_11_281
*255 FILLER_0_11_293
*256 FILLER_0_11_297
*257 FILLER_0_11_3
*258 FILLER_0_11_301
*259 FILLER_0_11_312
*260 FILLER_0_11_323
*261 FILLER_0_11_335
*262 FILLER_0_11_337
*263 FILLER_0_11_349
*264 FILLER_0_11_355
*265 FILLER_0_11_367
*266 FILLER_0_11_379
*267 FILLER_0_11_39
*268 FILLER_0_11_391
*269 FILLER_0_11_393
*270 FILLER_0_11_401
*271 FILLER_0_11_51
*272 FILLER_0_11_55
*273 FILLER_0_11_57
*274 FILLER_0_11_69
*275 FILLER_0_11_81
*276 FILLER_0_11_93
*277 FILLER_0_12_109
*278 FILLER_0_12_121
*279 FILLER_0_12_133
*280 FILLER_0_12_139
*281 FILLER_0_12_141
*282 FILLER_0_12_15
*283 FILLER_0_12_153
*284 FILLER_0_12_165
*285 FILLER_0_12_177
*286 FILLER_0_12_189
*287 FILLER_0_12_195
*288 FILLER_0_12_197
*289 FILLER_0_12_209
*290 FILLER_0_12_221
*291 FILLER_0_12_233
*292 FILLER_0_12_245
*293 FILLER_0_12_251
*294 FILLER_0_12_253
*295 FILLER_0_12_265
*296 FILLER_0_12_27
*297 FILLER_0_12_271
*298 FILLER_0_12_279
*299 FILLER_0_12_29
*300 FILLER_0_12_299
*301 FILLER_0_12_3
*302 FILLER_0_12_307
*303 FILLER_0_12_309
*304 FILLER_0_12_321
*305 FILLER_0_12_333
*306 FILLER_0_12_345
*307 FILLER_0_12_357
*308 FILLER_0_12_363
*309 FILLER_0_12_365
*310 FILLER_0_12_377
*311 FILLER_0_12_389
*312 FILLER_0_12_401
*313 FILLER_0_12_41
*314 FILLER_0_12_53
*315 FILLER_0_12_65
*316 FILLER_0_12_77
*317 FILLER_0_12_83
*318 FILLER_0_12_85
*319 FILLER_0_12_97
*320 FILLER_0_13_105
*321 FILLER_0_13_111
*322 FILLER_0_13_113
*323 FILLER_0_13_125
*324 FILLER_0_13_137
*325 FILLER_0_13_149
*326 FILLER_0_13_15
*327 FILLER_0_13_161
*328 FILLER_0_13_167
*329 FILLER_0_13_169
*330 FILLER_0_13_181
*331 FILLER_0_13_193
*332 FILLER_0_13_205
*333 FILLER_0_13_217
*334 FILLER_0_13_223
*335 FILLER_0_13_225
*336 FILLER_0_13_237
*337 FILLER_0_13_249
*338 FILLER_0_13_261
*339 FILLER_0_13_27
*340 FILLER_0_13_273
*341 FILLER_0_13_279
*342 FILLER_0_13_281
*343 FILLER_0_13_3
*344 FILLER_0_13_306
*345 FILLER_0_13_318
*346 FILLER_0_13_327
*347 FILLER_0_13_335
*348 FILLER_0_13_337
*349 FILLER_0_13_349
*350 FILLER_0_13_361
*351 FILLER_0_13_373
*352 FILLER_0_13_385
*353 FILLER_0_13_39
*354 FILLER_0_13_391
*355 FILLER_0_13_393
*356 FILLER_0_13_405
*357 FILLER_0_13_51
*358 FILLER_0_13_55
*359 FILLER_0_13_57
*360 FILLER_0_13_69
*361 FILLER_0_13_81
*362 FILLER_0_13_93
*363 FILLER_0_14_109
*364 FILLER_0_14_121
*365 FILLER_0_14_133
*366 FILLER_0_14_139
*367 FILLER_0_14_141
*368 FILLER_0_14_15
*369 FILLER_0_14_153
*370 FILLER_0_14_165
*371 FILLER_0_14_177
*372 FILLER_0_14_189
*373 FILLER_0_14_195
*374 FILLER_0_14_197
*375 FILLER_0_14_209
*376 FILLER_0_14_221
*377 FILLER_0_14_233
*378 FILLER_0_14_245
*379 FILLER_0_14_251
*380 FILLER_0_14_253
*381 FILLER_0_14_265
*382 FILLER_0_14_27
*383 FILLER_0_14_277
*384 FILLER_0_14_29
*385 FILLER_0_14_3
*386 FILLER_0_14_330
*387 FILLER_0_14_344
*388 FILLER_0_14_356
*389 FILLER_0_14_365
*390 FILLER_0_14_377
*391 FILLER_0_14_389
*392 FILLER_0_14_401
*393 FILLER_0_14_41
*394 FILLER_0_14_53
*395 FILLER_0_14_65
*396 FILLER_0_14_77
*397 FILLER_0_14_83
*398 FILLER_0_14_85
*399 FILLER_0_14_97
*400 FILLER_0_15_105
*401 FILLER_0_15_111
*402 FILLER_0_15_113
*403 FILLER_0_15_125
*404 FILLER_0_15_137
*405 FILLER_0_15_149
*406 FILLER_0_15_15
*407 FILLER_0_15_161
*408 FILLER_0_15_167
*409 FILLER_0_15_169
*410 FILLER_0_15_181
*411 FILLER_0_15_193
*412 FILLER_0_15_205
*413 FILLER_0_15_217
*414 FILLER_0_15_223
*415 FILLER_0_15_225
*416 FILLER_0_15_237
*417 FILLER_0_15_249
*418 FILLER_0_15_261
*419 FILLER_0_15_27
*420 FILLER_0_15_273
*421 FILLER_0_15_279
*422 FILLER_0_15_281
*423 FILLER_0_15_289
*424 FILLER_0_15_3
*425 FILLER_0_15_301
*426 FILLER_0_15_313
*427 FILLER_0_15_319
*428 FILLER_0_15_325
*429 FILLER_0_15_331
*430 FILLER_0_15_335
*431 FILLER_0_15_337
*432 FILLER_0_15_349
*433 FILLER_0_15_361
*434 FILLER_0_15_373
*435 FILLER_0_15_385
*436 FILLER_0_15_39
*437 FILLER_0_15_391
*438 FILLER_0_15_393
*439 FILLER_0_15_405
*440 FILLER_0_15_51
*441 FILLER_0_15_55
*442 FILLER_0_15_57
*443 FILLER_0_15_69
*444 FILLER_0_15_81
*445 FILLER_0_15_93
*446 FILLER_0_16_109
*447 FILLER_0_16_121
*448 FILLER_0_16_133
*449 FILLER_0_16_139
*450 FILLER_0_16_141
*451 FILLER_0_16_15
*452 FILLER_0_16_153
*453 FILLER_0_16_165
*454 FILLER_0_16_177
*455 FILLER_0_16_189
*456 FILLER_0_16_195
*457 FILLER_0_16_197
*458 FILLER_0_16_209
*459 FILLER_0_16_221
*460 FILLER_0_16_233
*461 FILLER_0_16_245
*462 FILLER_0_16_251
*463 FILLER_0_16_253
*464 FILLER_0_16_265
*465 FILLER_0_16_27
*466 FILLER_0_16_277
*467 FILLER_0_16_289
*468 FILLER_0_16_29
*469 FILLER_0_16_3
*470 FILLER_0_16_301
*471 FILLER_0_16_307
*472 FILLER_0_16_309
*473 FILLER_0_16_321
*474 FILLER_0_16_333
*475 FILLER_0_16_345
*476 FILLER_0_16_357
*477 FILLER_0_16_363
*478 FILLER_0_16_365
*479 FILLER_0_16_377
*480 FILLER_0_16_389
*481 FILLER_0_16_401
*482 FILLER_0_16_41
*483 FILLER_0_16_53
*484 FILLER_0_16_65
*485 FILLER_0_16_77
*486 FILLER_0_16_83
*487 FILLER_0_16_85
*488 FILLER_0_16_97
*489 FILLER_0_17_105
*490 FILLER_0_17_111
*491 FILLER_0_17_113
*492 FILLER_0_17_125
*493 FILLER_0_17_137
*494 FILLER_0_17_149
*495 FILLER_0_17_15
*496 FILLER_0_17_161
*497 FILLER_0_17_167
*498 FILLER_0_17_169
*499 FILLER_0_17_181
*500 FILLER_0_17_193
*501 FILLER_0_17_205
*502 FILLER_0_17_217
*503 FILLER_0_17_223
*504 FILLER_0_17_225
*505 FILLER_0_17_237
*506 FILLER_0_17_249
*507 FILLER_0_17_261
*508 FILLER_0_17_27
*509 FILLER_0_17_273
*510 FILLER_0_17_279
*511 FILLER_0_17_281
*512 FILLER_0_17_293
*513 FILLER_0_17_3
*514 FILLER_0_17_308
*515 FILLER_0_17_320
*516 FILLER_0_17_332
*517 FILLER_0_17_337
*518 FILLER_0_17_349
*519 FILLER_0_17_361
*520 FILLER_0_17_373
*521 FILLER_0_17_385
*522 FILLER_0_17_39
*523 FILLER_0_17_391
*524 FILLER_0_17_393
*525 FILLER_0_17_405
*526 FILLER_0_17_51
*527 FILLER_0_17_55
*528 FILLER_0_17_57
*529 FILLER_0_17_69
*530 FILLER_0_17_81
*531 FILLER_0_17_93
*532 FILLER_0_18_109
*533 FILLER_0_18_121
*534 FILLER_0_18_133
*535 FILLER_0_18_139
*536 FILLER_0_18_141
*537 FILLER_0_18_15
*538 FILLER_0_18_153
*539 FILLER_0_18_165
*540 FILLER_0_18_177
*541 FILLER_0_18_189
*542 FILLER_0_18_195
*543 FILLER_0_18_197
*544 FILLER_0_18_209
*545 FILLER_0_18_221
*546 FILLER_0_18_233
*547 FILLER_0_18_245
*548 FILLER_0_18_251
*549 FILLER_0_18_253
*550 FILLER_0_18_265
*551 FILLER_0_18_27
*552 FILLER_0_18_277
*553 FILLER_0_18_289
*554 FILLER_0_18_29
*555 FILLER_0_18_3
*556 FILLER_0_18_301
*557 FILLER_0_18_307
*558 FILLER_0_18_314
*559 FILLER_0_18_332
*560 FILLER_0_18_344
*561 FILLER_0_18_356
*562 FILLER_0_18_365
*563 FILLER_0_18_377
*564 FILLER_0_18_389
*565 FILLER_0_18_401
*566 FILLER_0_18_41
*567 FILLER_0_18_53
*568 FILLER_0_18_65
*569 FILLER_0_18_77
*570 FILLER_0_18_83
*571 FILLER_0_18_85
*572 FILLER_0_18_97
*573 FILLER_0_19_105
*574 FILLER_0_19_111
*575 FILLER_0_19_113
*576 FILLER_0_19_125
*577 FILLER_0_19_137
*578 FILLER_0_19_149
*579 FILLER_0_19_161
*580 FILLER_0_19_167
*581 FILLER_0_19_169
*582 FILLER_0_19_181
*583 FILLER_0_19_193
*584 FILLER_0_19_205
*585 FILLER_0_19_21
*586 FILLER_0_19_217
*587 FILLER_0_19_223
*588 FILLER_0_19_225
*589 FILLER_0_19_237
*590 FILLER_0_19_249
*591 FILLER_0_19_261
*592 FILLER_0_19_273
*593 FILLER_0_19_279
*594 FILLER_0_19_281
*595 FILLER_0_19_293
*596 FILLER_0_19_305
*597 FILLER_0_19_317
*598 FILLER_0_19_329
*599 FILLER_0_19_33
*600 FILLER_0_19_335
*601 FILLER_0_19_337
*602 FILLER_0_19_349
*603 FILLER_0_19_361
*604 FILLER_0_19_373
*605 FILLER_0_19_385
*606 FILLER_0_19_391
*607 FILLER_0_19_393
*608 FILLER_0_19_405
*609 FILLER_0_19_45
*610 FILLER_0_19_53
*611 FILLER_0_19_57
*612 FILLER_0_19_69
*613 FILLER_0_19_81
*614 FILLER_0_19_9
*615 FILLER_0_19_93
*616 FILLER_0_1_105
*617 FILLER_0_1_111
*618 FILLER_0_1_113
*619 FILLER_0_1_125
*620 FILLER_0_1_137
*621 FILLER_0_1_149
*622 FILLER_0_1_15
*623 FILLER_0_1_161
*624 FILLER_0_1_167
*625 FILLER_0_1_169
*626 FILLER_0_1_181
*627 FILLER_0_1_193
*628 FILLER_0_1_205
*629 FILLER_0_1_217
*630 FILLER_0_1_223
*631 FILLER_0_1_225
*632 FILLER_0_1_237
*633 FILLER_0_1_249
*634 FILLER_0_1_261
*635 FILLER_0_1_27
*636 FILLER_0_1_273
*637 FILLER_0_1_279
*638 FILLER_0_1_281
*639 FILLER_0_1_293
*640 FILLER_0_1_3
*641 FILLER_0_1_354
*642 FILLER_0_1_366
*643 FILLER_0_1_378
*644 FILLER_0_1_39
*645 FILLER_0_1_390
*646 FILLER_0_1_393
*647 FILLER_0_1_405
*648 FILLER_0_1_51
*649 FILLER_0_1_55
*650 FILLER_0_1_57
*651 FILLER_0_1_69
*652 FILLER_0_1_81
*653 FILLER_0_1_93
*654 FILLER_0_20_109
*655 FILLER_0_20_121
*656 FILLER_0_20_133
*657 FILLER_0_20_139
*658 FILLER_0_20_141
*659 FILLER_0_20_15
*660 FILLER_0_20_153
*661 FILLER_0_20_165
*662 FILLER_0_20_177
*663 FILLER_0_20_189
*664 FILLER_0_20_195
*665 FILLER_0_20_197
*666 FILLER_0_20_209
*667 FILLER_0_20_221
*668 FILLER_0_20_233
*669 FILLER_0_20_245
*670 FILLER_0_20_251
*671 FILLER_0_20_253
*672 FILLER_0_20_265
*673 FILLER_0_20_27
*674 FILLER_0_20_277
*675 FILLER_0_20_289
*676 FILLER_0_20_29
*677 FILLER_0_20_3
*678 FILLER_0_20_301
*679 FILLER_0_20_307
*680 FILLER_0_20_309
*681 FILLER_0_20_321
*682 FILLER_0_20_333
*683 FILLER_0_20_345
*684 FILLER_0_20_357
*685 FILLER_0_20_363
*686 FILLER_0_20_365
*687 FILLER_0_20_377
*688 FILLER_0_20_389
*689 FILLER_0_20_401
*690 FILLER_0_20_41
*691 FILLER_0_20_53
*692 FILLER_0_20_65
*693 FILLER_0_20_77
*694 FILLER_0_20_83
*695 FILLER_0_20_85
*696 FILLER_0_20_97
*697 FILLER_0_21_105
*698 FILLER_0_21_111
*699 FILLER_0_21_113
*700 FILLER_0_21_125
*701 FILLER_0_21_137
*702 FILLER_0_21_149
*703 FILLER_0_21_15
*704 FILLER_0_21_161
*705 FILLER_0_21_167
*706 FILLER_0_21_169
*707 FILLER_0_21_181
*708 FILLER_0_21_193
*709 FILLER_0_21_205
*710 FILLER_0_21_217
*711 FILLER_0_21_223
*712 FILLER_0_21_225
*713 FILLER_0_21_237
*714 FILLER_0_21_249
*715 FILLER_0_21_261
*716 FILLER_0_21_27
*717 FILLER_0_21_273
*718 FILLER_0_21_279
*719 FILLER_0_21_281
*720 FILLER_0_21_293
*721 FILLER_0_21_3
*722 FILLER_0_21_305
*723 FILLER_0_21_317
*724 FILLER_0_21_329
*725 FILLER_0_21_335
*726 FILLER_0_21_337
*727 FILLER_0_21_349
*728 FILLER_0_21_361
*729 FILLER_0_21_373
*730 FILLER_0_21_385
*731 FILLER_0_21_39
*732 FILLER_0_21_391
*733 FILLER_0_21_393
*734 FILLER_0_21_405
*735 FILLER_0_21_51
*736 FILLER_0_21_55
*737 FILLER_0_21_57
*738 FILLER_0_21_69
*739 FILLER_0_21_81
*740 FILLER_0_21_93
*741 FILLER_0_22_109
*742 FILLER_0_22_121
*743 FILLER_0_22_133
*744 FILLER_0_22_139
*745 FILLER_0_22_141
*746 FILLER_0_22_15
*747 FILLER_0_22_153
*748 FILLER_0_22_165
*749 FILLER_0_22_177
*750 FILLER_0_22_189
*751 FILLER_0_22_195
*752 FILLER_0_22_197
*753 FILLER_0_22_209
*754 FILLER_0_22_221
*755 FILLER_0_22_233
*756 FILLER_0_22_245
*757 FILLER_0_22_251
*758 FILLER_0_22_253
*759 FILLER_0_22_265
*760 FILLER_0_22_27
*761 FILLER_0_22_277
*762 FILLER_0_22_289
*763 FILLER_0_22_29
*764 FILLER_0_22_3
*765 FILLER_0_22_301
*766 FILLER_0_22_307
*767 FILLER_0_22_309
*768 FILLER_0_22_321
*769 FILLER_0_22_333
*770 FILLER_0_22_345
*771 FILLER_0_22_357
*772 FILLER_0_22_363
*773 FILLER_0_22_365
*774 FILLER_0_22_377
*775 FILLER_0_22_389
*776 FILLER_0_22_401
*777 FILLER_0_22_41
*778 FILLER_0_22_53
*779 FILLER_0_22_65
*780 FILLER_0_22_77
*781 FILLER_0_22_83
*782 FILLER_0_22_85
*783 FILLER_0_22_97
*784 FILLER_0_23_105
*785 FILLER_0_23_111
*786 FILLER_0_23_113
*787 FILLER_0_23_125
*788 FILLER_0_23_137
*789 FILLER_0_23_149
*790 FILLER_0_23_15
*791 FILLER_0_23_161
*792 FILLER_0_23_167
*793 FILLER_0_23_169
*794 FILLER_0_23_181
*795 FILLER_0_23_193
*796 FILLER_0_23_205
*797 FILLER_0_23_217
*798 FILLER_0_23_223
*799 FILLER_0_23_225
*800 FILLER_0_23_237
*801 FILLER_0_23_249
*802 FILLER_0_23_261
*803 FILLER_0_23_27
*804 FILLER_0_23_273
*805 FILLER_0_23_279
*806 FILLER_0_23_281
*807 FILLER_0_23_293
*808 FILLER_0_23_3
*809 FILLER_0_23_305
*810 FILLER_0_23_317
*811 FILLER_0_23_329
*812 FILLER_0_23_335
*813 FILLER_0_23_337
*814 FILLER_0_23_349
*815 FILLER_0_23_361
*816 FILLER_0_23_373
*817 FILLER_0_23_385
*818 FILLER_0_23_39
*819 FILLER_0_23_391
*820 FILLER_0_23_393
*821 FILLER_0_23_405
*822 FILLER_0_23_51
*823 FILLER_0_23_55
*824 FILLER_0_23_57
*825 FILLER_0_23_69
*826 FILLER_0_23_81
*827 FILLER_0_23_93
*828 FILLER_0_24_109
*829 FILLER_0_24_121
*830 FILLER_0_24_133
*831 FILLER_0_24_139
*832 FILLER_0_24_141
*833 FILLER_0_24_15
*834 FILLER_0_24_153
*835 FILLER_0_24_165
*836 FILLER_0_24_177
*837 FILLER_0_24_189
*838 FILLER_0_24_195
*839 FILLER_0_24_197
*840 FILLER_0_24_209
*841 FILLER_0_24_221
*842 FILLER_0_24_233
*843 FILLER_0_24_245
*844 FILLER_0_24_251
*845 FILLER_0_24_253
*846 FILLER_0_24_265
*847 FILLER_0_24_27
*848 FILLER_0_24_277
*849 FILLER_0_24_289
*850 FILLER_0_24_29
*851 FILLER_0_24_3
*852 FILLER_0_24_301
*853 FILLER_0_24_307
*854 FILLER_0_24_309
*855 FILLER_0_24_321
*856 FILLER_0_24_333
*857 FILLER_0_24_345
*858 FILLER_0_24_357
*859 FILLER_0_24_363
*860 FILLER_0_24_365
*861 FILLER_0_24_377
*862 FILLER_0_24_389
*863 FILLER_0_24_401
*864 FILLER_0_24_41
*865 FILLER_0_24_53
*866 FILLER_0_24_65
*867 FILLER_0_24_77
*868 FILLER_0_24_83
*869 FILLER_0_24_85
*870 FILLER_0_24_97
*871 FILLER_0_25_105
*872 FILLER_0_25_111
*873 FILLER_0_25_113
*874 FILLER_0_25_125
*875 FILLER_0_25_137
*876 FILLER_0_25_149
*877 FILLER_0_25_15
*878 FILLER_0_25_161
*879 FILLER_0_25_167
*880 FILLER_0_25_169
*881 FILLER_0_25_181
*882 FILLER_0_25_193
*883 FILLER_0_25_205
*884 FILLER_0_25_217
*885 FILLER_0_25_223
*886 FILLER_0_25_225
*887 FILLER_0_25_237
*888 FILLER_0_25_249
*889 FILLER_0_25_261
*890 FILLER_0_25_27
*891 FILLER_0_25_273
*892 FILLER_0_25_279
*893 FILLER_0_25_281
*894 FILLER_0_25_293
*895 FILLER_0_25_3
*896 FILLER_0_25_305
*897 FILLER_0_25_317
*898 FILLER_0_25_329
*899 FILLER_0_25_335
*900 FILLER_0_25_337
*901 FILLER_0_25_349
*902 FILLER_0_25_361
*903 FILLER_0_25_373
*904 FILLER_0_25_385
*905 FILLER_0_25_39
*906 FILLER_0_25_391
*907 FILLER_0_25_393
*908 FILLER_0_25_405
*909 FILLER_0_25_51
*910 FILLER_0_25_55
*911 FILLER_0_25_57
*912 FILLER_0_25_69
*913 FILLER_0_25_81
*914 FILLER_0_25_93
*915 FILLER_0_26_109
*916 FILLER_0_26_121
*917 FILLER_0_26_133
*918 FILLER_0_26_139
*919 FILLER_0_26_141
*920 FILLER_0_26_15
*921 FILLER_0_26_153
*922 FILLER_0_26_165
*923 FILLER_0_26_177
*924 FILLER_0_26_189
*925 FILLER_0_26_195
*926 FILLER_0_26_197
*927 FILLER_0_26_209
*928 FILLER_0_26_221
*929 FILLER_0_26_233
*930 FILLER_0_26_245
*931 FILLER_0_26_251
*932 FILLER_0_26_253
*933 FILLER_0_26_265
*934 FILLER_0_26_27
*935 FILLER_0_26_277
*936 FILLER_0_26_289
*937 FILLER_0_26_29
*938 FILLER_0_26_3
*939 FILLER_0_26_301
*940 FILLER_0_26_307
*941 FILLER_0_26_309
*942 FILLER_0_26_321
*943 FILLER_0_26_333
*944 FILLER_0_26_345
*945 FILLER_0_26_357
*946 FILLER_0_26_363
*947 FILLER_0_26_365
*948 FILLER_0_26_377
*949 FILLER_0_26_389
*950 FILLER_0_26_401
*951 FILLER_0_26_41
*952 FILLER_0_26_53
*953 FILLER_0_26_65
*954 FILLER_0_26_77
*955 FILLER_0_26_83
*956 FILLER_0_26_85
*957 FILLER_0_26_97
*958 FILLER_0_27_105
*959 FILLER_0_27_111
*960 FILLER_0_27_113
*961 FILLER_0_27_125
*962 FILLER_0_27_137
*963 FILLER_0_27_149
*964 FILLER_0_27_15
*965 FILLER_0_27_161
*966 FILLER_0_27_167
*967 FILLER_0_27_169
*968 FILLER_0_27_181
*969 FILLER_0_27_193
*970 FILLER_0_27_205
*971 FILLER_0_27_217
*972 FILLER_0_27_223
*973 FILLER_0_27_225
*974 FILLER_0_27_237
*975 FILLER_0_27_249
*976 FILLER_0_27_261
*977 FILLER_0_27_27
*978 FILLER_0_27_273
*979 FILLER_0_27_279
*980 FILLER_0_27_281
*981 FILLER_0_27_293
*982 FILLER_0_27_3
*983 FILLER_0_27_305
*984 FILLER_0_27_317
*985 FILLER_0_27_329
*986 FILLER_0_27_335
*987 FILLER_0_27_337
*988 FILLER_0_27_349
*989 FILLER_0_27_361
*990 FILLER_0_27_373
*991 FILLER_0_27_385
*992 FILLER_0_27_39
*993 FILLER_0_27_391
*994 FILLER_0_27_393
*995 FILLER_0_27_405
*996 FILLER_0_27_51
*997 FILLER_0_27_55
*998 FILLER_0_27_57
*999 FILLER_0_27_69
*1000 FILLER_0_27_81
*1001 FILLER_0_27_93
*1002 FILLER_0_28_109
*1003 FILLER_0_28_121
*1004 FILLER_0_28_133
*1005 FILLER_0_28_139
*1006 FILLER_0_28_141
*1007 FILLER_0_28_15
*1008 FILLER_0_28_153
*1009 FILLER_0_28_165
*1010 FILLER_0_28_177
*1011 FILLER_0_28_189
*1012 FILLER_0_28_195
*1013 FILLER_0_28_197
*1014 FILLER_0_28_209
*1015 FILLER_0_28_221
*1016 FILLER_0_28_233
*1017 FILLER_0_28_245
*1018 FILLER_0_28_251
*1019 FILLER_0_28_253
*1020 FILLER_0_28_265
*1021 FILLER_0_28_27
*1022 FILLER_0_28_277
*1023 FILLER_0_28_289
*1024 FILLER_0_28_29
*1025 FILLER_0_28_3
*1026 FILLER_0_28_301
*1027 FILLER_0_28_307
*1028 FILLER_0_28_309
*1029 FILLER_0_28_321
*1030 FILLER_0_28_333
*1031 FILLER_0_28_345
*1032 FILLER_0_28_357
*1033 FILLER_0_28_363
*1034 FILLER_0_28_365
*1035 FILLER_0_28_377
*1036 FILLER_0_28_389
*1037 FILLER_0_28_401
*1038 FILLER_0_28_41
*1039 FILLER_0_28_53
*1040 FILLER_0_28_65
*1041 FILLER_0_28_77
*1042 FILLER_0_28_83
*1043 FILLER_0_28_85
*1044 FILLER_0_28_97
*1045 FILLER_0_29_105
*1046 FILLER_0_29_111
*1047 FILLER_0_29_113
*1048 FILLER_0_29_125
*1049 FILLER_0_29_137
*1050 FILLER_0_29_149
*1051 FILLER_0_29_15
*1052 FILLER_0_29_161
*1053 FILLER_0_29_167
*1054 FILLER_0_29_169
*1055 FILLER_0_29_181
*1056 FILLER_0_29_193
*1057 FILLER_0_29_205
*1058 FILLER_0_29_217
*1059 FILLER_0_29_223
*1060 FILLER_0_29_225
*1061 FILLER_0_29_237
*1062 FILLER_0_29_249
*1063 FILLER_0_29_261
*1064 FILLER_0_29_27
*1065 FILLER_0_29_273
*1066 FILLER_0_29_279
*1067 FILLER_0_29_281
*1068 FILLER_0_29_293
*1069 FILLER_0_29_3
*1070 FILLER_0_29_305
*1071 FILLER_0_29_317
*1072 FILLER_0_29_329
*1073 FILLER_0_29_335
*1074 FILLER_0_29_337
*1075 FILLER_0_29_349
*1076 FILLER_0_29_361
*1077 FILLER_0_29_373
*1078 FILLER_0_29_385
*1079 FILLER_0_29_39
*1080 FILLER_0_29_391
*1081 FILLER_0_29_393
*1082 FILLER_0_29_405
*1083 FILLER_0_29_51
*1084 FILLER_0_29_55
*1085 FILLER_0_29_57
*1086 FILLER_0_29_69
*1087 FILLER_0_29_81
*1088 FILLER_0_29_93
*1089 FILLER_0_2_109
*1090 FILLER_0_2_121
*1091 FILLER_0_2_133
*1092 FILLER_0_2_139
*1093 FILLER_0_2_141
*1094 FILLER_0_2_15
*1095 FILLER_0_2_153
*1096 FILLER_0_2_165
*1097 FILLER_0_2_177
*1098 FILLER_0_2_189
*1099 FILLER_0_2_195
*1100 FILLER_0_2_197
*1101 FILLER_0_2_209
*1102 FILLER_0_2_221
*1103 FILLER_0_2_233
*1104 FILLER_0_2_245
*1105 FILLER_0_2_251
*1106 FILLER_0_2_253
*1107 FILLER_0_2_265
*1108 FILLER_0_2_27
*1109 FILLER_0_2_277
*1110 FILLER_0_2_285
*1111 FILLER_0_2_29
*1112 FILLER_0_2_297
*1113 FILLER_0_2_3
*1114 FILLER_0_2_305
*1115 FILLER_0_2_342
*1116 FILLER_0_2_354
*1117 FILLER_0_2_362
*1118 FILLER_0_2_365
*1119 FILLER_0_2_377
*1120 FILLER_0_2_389
*1121 FILLER_0_2_401
*1122 FILLER_0_2_41
*1123 FILLER_0_2_53
*1124 FILLER_0_2_65
*1125 FILLER_0_2_77
*1126 FILLER_0_2_83
*1127 FILLER_0_2_85
*1128 FILLER_0_2_97
*1129 FILLER_0_30_109
*1130 FILLER_0_30_121
*1131 FILLER_0_30_133
*1132 FILLER_0_30_139
*1133 FILLER_0_30_141
*1134 FILLER_0_30_153
*1135 FILLER_0_30_165
*1136 FILLER_0_30_177
*1137 FILLER_0_30_189
*1138 FILLER_0_30_19
*1139 FILLER_0_30_195
*1140 FILLER_0_30_197
*1141 FILLER_0_30_209
*1142 FILLER_0_30_221
*1143 FILLER_0_30_233
*1144 FILLER_0_30_245
*1145 FILLER_0_30_251
*1146 FILLER_0_30_253
*1147 FILLER_0_30_265
*1148 FILLER_0_30_27
*1149 FILLER_0_30_277
*1150 FILLER_0_30_289
*1151 FILLER_0_30_29
*1152 FILLER_0_30_301
*1153 FILLER_0_30_307
*1154 FILLER_0_30_309
*1155 FILLER_0_30_321
*1156 FILLER_0_30_333
*1157 FILLER_0_30_345
*1158 FILLER_0_30_357
*1159 FILLER_0_30_363
*1160 FILLER_0_30_365
*1161 FILLER_0_30_377
*1162 FILLER_0_30_389
*1163 FILLER_0_30_401
*1164 FILLER_0_30_41
*1165 FILLER_0_30_53
*1166 FILLER_0_30_65
*1167 FILLER_0_30_7
*1168 FILLER_0_30_77
*1169 FILLER_0_30_83
*1170 FILLER_0_30_85
*1171 FILLER_0_30_97
*1172 FILLER_0_31_105
*1173 FILLER_0_31_111
*1174 FILLER_0_31_113
*1175 FILLER_0_31_125
*1176 FILLER_0_31_137
*1177 FILLER_0_31_149
*1178 FILLER_0_31_15
*1179 FILLER_0_31_161
*1180 FILLER_0_31_167
*1181 FILLER_0_31_169
*1182 FILLER_0_31_181
*1183 FILLER_0_31_193
*1184 FILLER_0_31_205
*1185 FILLER_0_31_217
*1186 FILLER_0_31_223
*1187 FILLER_0_31_225
*1188 FILLER_0_31_237
*1189 FILLER_0_31_249
*1190 FILLER_0_31_261
*1191 FILLER_0_31_27
*1192 FILLER_0_31_273
*1193 FILLER_0_31_279
*1194 FILLER_0_31_281
*1195 FILLER_0_31_293
*1196 FILLER_0_31_3
*1197 FILLER_0_31_305
*1198 FILLER_0_31_317
*1199 FILLER_0_31_329
*1200 FILLER_0_31_335
*1201 FILLER_0_31_337
*1202 FILLER_0_31_349
*1203 FILLER_0_31_361
*1204 FILLER_0_31_373
*1205 FILLER_0_31_385
*1206 FILLER_0_31_39
*1207 FILLER_0_31_391
*1208 FILLER_0_31_393
*1209 FILLER_0_31_405
*1210 FILLER_0_31_51
*1211 FILLER_0_31_55
*1212 FILLER_0_31_57
*1213 FILLER_0_31_69
*1214 FILLER_0_31_81
*1215 FILLER_0_31_93
*1216 FILLER_0_32_109
*1217 FILLER_0_32_121
*1218 FILLER_0_32_133
*1219 FILLER_0_32_139
*1220 FILLER_0_32_141
*1221 FILLER_0_32_15
*1222 FILLER_0_32_153
*1223 FILLER_0_32_165
*1224 FILLER_0_32_177
*1225 FILLER_0_32_189
*1226 FILLER_0_32_195
*1227 FILLER_0_32_197
*1228 FILLER_0_32_209
*1229 FILLER_0_32_221
*1230 FILLER_0_32_233
*1231 FILLER_0_32_245
*1232 FILLER_0_32_251
*1233 FILLER_0_32_253
*1234 FILLER_0_32_265
*1235 FILLER_0_32_27
*1236 FILLER_0_32_277
*1237 FILLER_0_32_289
*1238 FILLER_0_32_29
*1239 FILLER_0_32_3
*1240 FILLER_0_32_301
*1241 FILLER_0_32_307
*1242 FILLER_0_32_309
*1243 FILLER_0_32_321
*1244 FILLER_0_32_333
*1245 FILLER_0_32_345
*1246 FILLER_0_32_357
*1247 FILLER_0_32_363
*1248 FILLER_0_32_365
*1249 FILLER_0_32_377
*1250 FILLER_0_32_389
*1251 FILLER_0_32_401
*1252 FILLER_0_32_41
*1253 FILLER_0_32_53
*1254 FILLER_0_32_65
*1255 FILLER_0_32_77
*1256 FILLER_0_32_83
*1257 FILLER_0_32_85
*1258 FILLER_0_32_97
*1259 FILLER_0_33_105
*1260 FILLER_0_33_111
*1261 FILLER_0_33_113
*1262 FILLER_0_33_125
*1263 FILLER_0_33_137
*1264 FILLER_0_33_149
*1265 FILLER_0_33_15
*1266 FILLER_0_33_161
*1267 FILLER_0_33_167
*1268 FILLER_0_33_169
*1269 FILLER_0_33_181
*1270 FILLER_0_33_193
*1271 FILLER_0_33_205
*1272 FILLER_0_33_217
*1273 FILLER_0_33_223
*1274 FILLER_0_33_225
*1275 FILLER_0_33_237
*1276 FILLER_0_33_249
*1277 FILLER_0_33_261
*1278 FILLER_0_33_27
*1279 FILLER_0_33_273
*1280 FILLER_0_33_279
*1281 FILLER_0_33_281
*1282 FILLER_0_33_293
*1283 FILLER_0_33_3
*1284 FILLER_0_33_305
*1285 FILLER_0_33_317
*1286 FILLER_0_33_329
*1287 FILLER_0_33_335
*1288 FILLER_0_33_337
*1289 FILLER_0_33_349
*1290 FILLER_0_33_361
*1291 FILLER_0_33_373
*1292 FILLER_0_33_385
*1293 FILLER_0_33_39
*1294 FILLER_0_33_391
*1295 FILLER_0_33_393
*1296 FILLER_0_33_405
*1297 FILLER_0_33_51
*1298 FILLER_0_33_55
*1299 FILLER_0_33_57
*1300 FILLER_0_33_69
*1301 FILLER_0_33_81
*1302 FILLER_0_33_93
*1303 FILLER_0_34_109
*1304 FILLER_0_34_121
*1305 FILLER_0_34_133
*1306 FILLER_0_34_139
*1307 FILLER_0_34_141
*1308 FILLER_0_34_15
*1309 FILLER_0_34_153
*1310 FILLER_0_34_165
*1311 FILLER_0_34_177
*1312 FILLER_0_34_189
*1313 FILLER_0_34_195
*1314 FILLER_0_34_197
*1315 FILLER_0_34_209
*1316 FILLER_0_34_221
*1317 FILLER_0_34_233
*1318 FILLER_0_34_245
*1319 FILLER_0_34_251
*1320 FILLER_0_34_253
*1321 FILLER_0_34_265
*1322 FILLER_0_34_27
*1323 FILLER_0_34_277
*1324 FILLER_0_34_289
*1325 FILLER_0_34_29
*1326 FILLER_0_34_3
*1327 FILLER_0_34_301
*1328 FILLER_0_34_307
*1329 FILLER_0_34_309
*1330 FILLER_0_34_321
*1331 FILLER_0_34_333
*1332 FILLER_0_34_345
*1333 FILLER_0_34_357
*1334 FILLER_0_34_363
*1335 FILLER_0_34_365
*1336 FILLER_0_34_377
*1337 FILLER_0_34_389
*1338 FILLER_0_34_401
*1339 FILLER_0_34_41
*1340 FILLER_0_34_53
*1341 FILLER_0_34_65
*1342 FILLER_0_34_77
*1343 FILLER_0_34_83
*1344 FILLER_0_34_85
*1345 FILLER_0_34_97
*1346 FILLER_0_35_105
*1347 FILLER_0_35_111
*1348 FILLER_0_35_113
*1349 FILLER_0_35_125
*1350 FILLER_0_35_137
*1351 FILLER_0_35_149
*1352 FILLER_0_35_15
*1353 FILLER_0_35_161
*1354 FILLER_0_35_167
*1355 FILLER_0_35_169
*1356 FILLER_0_35_181
*1357 FILLER_0_35_193
*1358 FILLER_0_35_205
*1359 FILLER_0_35_217
*1360 FILLER_0_35_223
*1361 FILLER_0_35_225
*1362 FILLER_0_35_237
*1363 FILLER_0_35_249
*1364 FILLER_0_35_261
*1365 FILLER_0_35_27
*1366 FILLER_0_35_273
*1367 FILLER_0_35_279
*1368 FILLER_0_35_281
*1369 FILLER_0_35_293
*1370 FILLER_0_35_3
*1371 FILLER_0_35_305
*1372 FILLER_0_35_317
*1373 FILLER_0_35_329
*1374 FILLER_0_35_335
*1375 FILLER_0_35_337
*1376 FILLER_0_35_349
*1377 FILLER_0_35_361
*1378 FILLER_0_35_373
*1379 FILLER_0_35_385
*1380 FILLER_0_35_39
*1381 FILLER_0_35_391
*1382 FILLER_0_35_393
*1383 FILLER_0_35_401
*1384 FILLER_0_35_51
*1385 FILLER_0_35_55
*1386 FILLER_0_35_57
*1387 FILLER_0_35_69
*1388 FILLER_0_35_81
*1389 FILLER_0_35_93
*1390 FILLER_0_36_109
*1391 FILLER_0_36_121
*1392 FILLER_0_36_133
*1393 FILLER_0_36_139
*1394 FILLER_0_36_141
*1395 FILLER_0_36_15
*1396 FILLER_0_36_153
*1397 FILLER_0_36_165
*1398 FILLER_0_36_177
*1399 FILLER_0_36_189
*1400 FILLER_0_36_195
*1401 FILLER_0_36_197
*1402 FILLER_0_36_209
*1403 FILLER_0_36_221
*1404 FILLER_0_36_233
*1405 FILLER_0_36_245
*1406 FILLER_0_36_251
*1407 FILLER_0_36_253
*1408 FILLER_0_36_265
*1409 FILLER_0_36_27
*1410 FILLER_0_36_277
*1411 FILLER_0_36_289
*1412 FILLER_0_36_29
*1413 FILLER_0_36_3
*1414 FILLER_0_36_301
*1415 FILLER_0_36_307
*1416 FILLER_0_36_309
*1417 FILLER_0_36_321
*1418 FILLER_0_36_333
*1419 FILLER_0_36_345
*1420 FILLER_0_36_357
*1421 FILLER_0_36_363
*1422 FILLER_0_36_365
*1423 FILLER_0_36_377
*1424 FILLER_0_36_389
*1425 FILLER_0_36_401
*1426 FILLER_0_36_41
*1427 FILLER_0_36_53
*1428 FILLER_0_36_65
*1429 FILLER_0_36_77
*1430 FILLER_0_36_83
*1431 FILLER_0_36_85
*1432 FILLER_0_36_97
*1433 FILLER_0_37_105
*1434 FILLER_0_37_111
*1435 FILLER_0_37_113
*1436 FILLER_0_37_125
*1437 FILLER_0_37_137
*1438 FILLER_0_37_149
*1439 FILLER_0_37_15
*1440 FILLER_0_37_161
*1441 FILLER_0_37_167
*1442 FILLER_0_37_169
*1443 FILLER_0_37_181
*1444 FILLER_0_37_193
*1445 FILLER_0_37_205
*1446 FILLER_0_37_217
*1447 FILLER_0_37_223
*1448 FILLER_0_37_225
*1449 FILLER_0_37_237
*1450 FILLER_0_37_249
*1451 FILLER_0_37_261
*1452 FILLER_0_37_27
*1453 FILLER_0_37_273
*1454 FILLER_0_37_279
*1455 FILLER_0_37_281
*1456 FILLER_0_37_293
*1457 FILLER_0_37_3
*1458 FILLER_0_37_305
*1459 FILLER_0_37_317
*1460 FILLER_0_37_329
*1461 FILLER_0_37_335
*1462 FILLER_0_37_337
*1463 FILLER_0_37_349
*1464 FILLER_0_37_361
*1465 FILLER_0_37_373
*1466 FILLER_0_37_385
*1467 FILLER_0_37_39
*1468 FILLER_0_37_391
*1469 FILLER_0_37_393
*1470 FILLER_0_37_405
*1471 FILLER_0_37_51
*1472 FILLER_0_37_55
*1473 FILLER_0_37_57
*1474 FILLER_0_37_69
*1475 FILLER_0_37_81
*1476 FILLER_0_37_93
*1477 FILLER_0_38_109
*1478 FILLER_0_38_121
*1479 FILLER_0_38_133
*1480 FILLER_0_38_139
*1481 FILLER_0_38_141
*1482 FILLER_0_38_15