*SPEF "ieee 1481-1999"
*DESIGN "control_unity"
*DATE "11:11:11 Fri 11 11, 1111"
*VENDOR "OpenRCX"
*PROGRAM "Parallel Extraction"
*VERSION "1.0"
*DESIGN_FLOW "NAME_SCOPE LOCAL" "PIN_CAP NONE"
*DIVIDER /
*DELIMITER :
*BUS_DELIMITER []
*T_UNIT 1 NS
*C_UNIT 1 PF
*R_UNIT 1 OHM
*L_UNIT 1 HENRY

*NAME_MAP
*3 alu_control[0]
*4 alu_control[1]
*5 alu_control[2]
*6 alu_control[3]
*7 alu_mux_in
*8 alu_mux_out
*9 br_enable
*10 br_mux_inv
*11 databus[0]
*12 databus[1]
*13 databus[2]
*14 funct3[0]
*15 funct3[1]
*16 funct3[2]
*17 funct7[0]
*18 funct7[1]
*19 funct7[2]
*20 funct7[3]
*21 funct7[4]
*22 funct7[5]
*23 funct7[6]
*24 imm_rd
*25 opcode[0]
*26 opcode[1]
*27 opcode[2]
*28 opcode[3]
*29 opcode[4]
*30 opcode[5]
*31 opcode[6]
*32 ram_w_enable
*33 register_w_enable
*34 _000_
*35 _001_
*36 _002_
*37 _003_
*38 _004_
*39 _005_
*40 _006_
*41 _007_
*42 _008_
*43 _009_
*44 _010_
*45 _011_
*46 _012_
*47 _013_
*48 _014_
*49 _015_
*50 _016_
*51 _017_
*52 _018_
*53 _019_
*54 _020_
*55 _021_
*56 _022_
*57 _023_
*58 _024_
*59 _025_
*60 _026_
*61 _027_
*62 _028_
*63 _029_
*64 _030_
*65 _031_
*66 _032_
*67 _033_
*68 _034_
*69 _035_
*70 _036_
*71 _037_
*72 _038_
*73 _039_
*74 _040_
*75 _041_
*76 _042_
*77 _043_
*78 _044_
*79 _045_
*80 _046_
*81 _047_
*82 _048_
*83 _049_
*84 _050_
*85 _051_
*86 _052_
*87 _053_
*88 _054_
*89 _055_
*90 net1
*91 net10
*92 net11
*93 net12
*94 net13
*95 net14
*96 net15
*97 net16
*98 net17
*99 net18
*100 net19
*101 net2
*102 net20
*103 net21
*104 net22
*105 net23
*106 net24
*107 net25
*108 net26
*109 net27
*110 net28
*111 net29
*112 net3
*113 net30
*114 net31
*115 net4
*116 net5
*117 net6
*118 net7
*119 net8
*120 net9
*121 FILLER_0_0_100
*122 FILLER_0_0_113
*123 FILLER_0_0_125
*124 FILLER_0_0_137
*125 FILLER_0_0_141
*126 FILLER_0_0_149
*127 FILLER_0_0_153
*128 FILLER_0_0_165
*129 FILLER_0_0_169
*130 FILLER_0_0_181
*131 FILLER_0_0_193
*132 FILLER_0_0_197
*133 FILLER_0_0_205
*134 FILLER_0_0_21
*135 FILLER_0_0_212
*136 FILLER_0_0_225
*137 FILLER_0_0_237
*138 FILLER_0_0_249
*139 FILLER_0_0_253
*140 FILLER_0_0_261
*141 FILLER_0_0_266
*142 FILLER_0_0_27
*143 FILLER_0_0_278
*144 FILLER_0_0_281
*145 FILLER_0_0_29
*146 FILLER_0_0_293
*147 FILLER_0_0_305
*148 FILLER_0_0_309
*149 FILLER_0_0_317
*150 FILLER_0_0_329
*151 FILLER_0_0_335
*152 FILLER_0_0_337
*153 FILLER_0_0_349
*154 FILLER_0_0_361
*155 FILLER_0_0_365
*156 FILLER_0_0_37
*157 FILLER_0_0_371
*158 FILLER_0_0_383
*159 FILLER_0_0_391
*160 FILLER_0_0_393
*161 FILLER_0_0_401
*162 FILLER_0_0_48
*163 FILLER_0_0_57
*164 FILLER_0_0_69
*165 FILLER_0_0_81
*166 FILLER_0_0_85
*167 FILLER_0_0_9
*168 FILLER_0_0_93
*169 FILLER_0_10_109
*170 FILLER_0_10_121
*171 FILLER_0_10_133
*172 FILLER_0_10_139
*173 FILLER_0_10_141
*174 FILLER_0_10_15
*175 FILLER_0_10_153
*176 FILLER_0_10_165
*177 FILLER_0_10_177
*178 FILLER_0_10_189
*179 FILLER_0_10_195
*180 FILLER_0_10_197
*181 FILLER_0_10_209
*182 FILLER_0_10_221
*183 FILLER_0_10_233
*184 FILLER_0_10_245
*185 FILLER_0_10_251
*186 FILLER_0_10_253
*187 FILLER_0_10_265
*188 FILLER_0_10_27
*189 FILLER_0_10_277
*190 FILLER_0_10_289
*191 FILLER_0_10_29
*192 FILLER_0_10_3
*193 FILLER_0_10_301
*194 FILLER_0_10_307
*195 FILLER_0_10_309
*196 FILLER_0_10_321
*197 FILLER_0_10_333
*198 FILLER_0_10_345
*199 FILLER_0_10_357
*200 FILLER_0_10_363
*201 FILLER_0_10_365
*202 FILLER_0_10_377
*203 FILLER_0_10_389
*204 FILLER_0_10_401
*205 FILLER_0_10_41
*206 FILLER_0_10_53
*207 FILLER_0_10_65
*208 FILLER_0_10_77
*209 FILLER_0_10_83
*210 FILLER_0_10_85
*211 FILLER_0_10_97
*212 FILLER_0_11_105
*213 FILLER_0_11_111
*214 FILLER_0_11_113
*215 FILLER_0_11_125
*216 FILLER_0_11_137
*217 FILLER_0_11_149
*218 FILLER_0_11_15
*219 FILLER_0_11_161
*220 FILLER_0_11_167
*221 FILLER_0_11_169
*222 FILLER_0_11_181
*223 FILLER_0_11_193
*224 FILLER_0_11_205
*225 FILLER_0_11_217
*226 FILLER_0_11_223
*227 FILLER_0_11_225
*228 FILLER_0_11_237
*229 FILLER_0_11_249
*230 FILLER_0_11_261
*231 FILLER_0_11_27
*232 FILLER_0_11_273
*233 FILLER_0_11_279
*234 FILLER_0_11_281
*235 FILLER_0_11_293
*236 FILLER_0_11_3
*237 FILLER_0_11_305
*238 FILLER_0_11_317
*239 FILLER_0_11_329
*240 FILLER_0_11_335
*241 FILLER_0_11_337
*242 FILLER_0_11_349
*243 FILLER_0_11_361
*244 FILLER_0_11_373
*245 FILLER_0_11_385
*246 FILLER_0_11_39
*247 FILLER_0_11_391
*248 FILLER_0_11_393
*249 FILLER_0_11_405
*250 FILLER_0_11_51
*251 FILLER_0_11_55
*252 FILLER_0_11_57
*253 FILLER_0_11_69
*254 FILLER_0_11_81
*255 FILLER_0_11_93
*256 FILLER_0_12_109
*257 FILLER_0_12_121
*258 FILLER_0_12_133
*259 FILLER_0_12_139
*260 FILLER_0_12_141
*261 FILLER_0_12_15
*262 FILLER_0_12_153
*263 FILLER_0_12_165
*264 FILLER_0_12_177
*265 FILLER_0_12_189
*266 FILLER_0_12_195
*267 FILLER_0_12_197
*268 FILLER_0_12_209
*269 FILLER_0_12_221
*270 FILLER_0_12_233
*271 FILLER_0_12_245
*272 FILLER_0_12_251
*273 FILLER_0_12_253
*274 FILLER_0_12_265
*275 FILLER_0_12_27
*276 FILLER_0_12_277
*277 FILLER_0_12_289
*278 FILLER_0_12_29
*279 FILLER_0_12_3
*280 FILLER_0_12_301
*281 FILLER_0_12_307
*282 FILLER_0_12_309
*283 FILLER_0_12_321
*284 FILLER_0_12_333
*285 FILLER_0_12_345
*286 FILLER_0_12_357
*287 FILLER_0_12_363
*288 FILLER_0_12_365
*289 FILLER_0_12_377
*290 FILLER_0_12_389
*291 FILLER_0_12_401
*292 FILLER_0_12_41
*293 FILLER_0_12_53
*294 FILLER_0_12_65
*295 FILLER_0_12_77
*296 FILLER_0_12_83
*297 FILLER_0_12_85
*298 FILLER_0_12_97
*299 FILLER_0_13_105
*300 FILLER_0_13_111
*301 FILLER_0_13_113
*302 FILLER_0_13_125
*303 FILLER_0_13_137
*304 FILLER_0_13_149
*305 FILLER_0_13_15
*306 FILLER_0_13_161
*307 FILLER_0_13_167
*308 FILLER_0_13_169
*309 FILLER_0_13_181
*310 FILLER_0_13_193
*311 FILLER_0_13_205
*312 FILLER_0_13_217
*313 FILLER_0_13_223
*314 FILLER_0_13_225
*315 FILLER_0_13_237
*316 FILLER_0_13_249
*317 FILLER_0_13_261
*318 FILLER_0_13_27
*319 FILLER_0_13_273
*320 FILLER_0_13_279
*321 FILLER_0_13_281
*322 FILLER_0_13_293
*323 FILLER_0_13_3
*324 FILLER_0_13_305
*325 FILLER_0_13_317
*326 FILLER_0_13_329
*327 FILLER_0_13_335
*328 FILLER_0_13_337
*329 FILLER_0_13_349
*330 FILLER_0_13_361
*331 FILLER_0_13_373
*332 FILLER_0_13_385
*333 FILLER_0_13_39
*334 FILLER_0_13_391
*335 FILLER_0_13_393
*336 FILLER_0_13_405
*337 FILLER_0_13_51
*338 FILLER_0_13_55
*339 FILLER_0_13_57
*340 FILLER_0_13_69
*341 FILLER_0_13_81
*342 FILLER_0_13_93
*343 FILLER_0_14_109
*344 FILLER_0_14_121
*345 FILLER_0_14_133
*346 FILLER_0_14_139
*347 FILLER_0_14_141
*348 FILLER_0_14_15
*349 FILLER_0_14_153
*350 FILLER_0_14_165
*351 FILLER_0_14_177
*352 FILLER_0_14_189
*353 FILLER_0_14_195
*354 FILLER_0_14_197
*355 FILLER_0_14_209
*356 FILLER_0_14_221
*357 FILLER_0_14_233
*358 FILLER_0_14_245
*359 FILLER_0_14_251
*360 FILLER_0_14_253
*361 FILLER_0_14_265
*362 FILLER_0_14_27
*363 FILLER_0_14_277
*364 FILLER_0_14_289
*365 FILLER_0_14_29
*366 FILLER_0_14_3
*367 FILLER_0_14_301
*368 FILLER_0_14_307
*369 FILLER_0_14_309
*370 FILLER_0_14_321
*371 FILLER_0_14_333
*372 FILLER_0_14_345
*373 FILLER_0_14_357
*374 FILLER_0_14_363
*375 FILLER_0_14_365
*376 FILLER_0_14_377
*377 FILLER_0_14_389
*378 FILLER_0_14_401
*379 FILLER_0_14_41
*380 FILLER_0_14_53
*381 FILLER_0_14_65
*382 FILLER_0_14_77
*383 FILLER_0_14_83
*384 FILLER_0_14_85
*385 FILLER_0_14_97
*386 FILLER_0_15_105
*387 FILLER_0_15_111
*388 FILLER_0_15_113
*389 FILLER_0_15_125
*390 FILLER_0_15_137
*391 FILLER_0_15_149
*392 FILLER_0_15_161
*393 FILLER_0_15_167
*394 FILLER_0_15_169
*395 FILLER_0_15_18
*396 FILLER_0_15_181
*397 FILLER_0_15_193
*398 FILLER_0_15_205
*399 FILLER_0_15_217
*400 FILLER_0_15_223
*401 FILLER_0_15_225
*402 FILLER_0_15_237
*403 FILLER_0_15_249
*404 FILLER_0_15_261
*405 FILLER_0_15_273
*406 FILLER_0_15_279
*407 FILLER_0_15_281
*408 FILLER_0_15_293
*409 FILLER_0_15_30
*410 FILLER_0_15_305
*411 FILLER_0_15_317
*412 FILLER_0_15_329
*413 FILLER_0_15_335
*414 FILLER_0_15_337
*415 FILLER_0_15_349
*416 FILLER_0_15_361
*417 FILLER_0_15_373
*418 FILLER_0_15_385
*419 FILLER_0_15_391
*420 FILLER_0_15_393
*421 FILLER_0_15_405
*422 FILLER_0_15_42
*423 FILLER_0_15_54
*424 FILLER_0_15_57
*425 FILLER_0_15_6
*426 FILLER_0_15_69
*427 FILLER_0_15_81
*428 FILLER_0_15_93
*429 FILLER_0_16_109
*430 FILLER_0_16_121
*431 FILLER_0_16_133
*432 FILLER_0_16_139
*433 FILLER_0_16_141
*434 FILLER_0_16_15
*435 FILLER_0_16_153
*436 FILLER_0_16_165
*437 FILLER_0_16_177
*438 FILLER_0_16_189
*439 FILLER_0_16_195
*440 FILLER_0_16_197
*441 FILLER_0_16_209
*442 FILLER_0_16_221
*443 FILLER_0_16_233
*444 FILLER_0_16_245
*445 FILLER_0_16_251
*446 FILLER_0_16_253
*447 FILLER_0_16_265
*448 FILLER_0_16_27
*449 FILLER_0_16_277
*450 FILLER_0_16_289
*451 FILLER_0_16_29
*452 FILLER_0_16_3
*453 FILLER_0_16_301
*454 FILLER_0_16_307
*455 FILLER_0_16_309
*456 FILLER_0_16_321
*457 FILLER_0_16_333
*458 FILLER_0_16_345
*459 FILLER_0_16_357
*460 FILLER_0_16_363
*461 FILLER_0_16_365
*462 FILLER_0_16_377
*463 FILLER_0_16_389
*464 FILLER_0_16_41
*465 FILLER_0_16_53
*466 FILLER_0_16_65
*467 FILLER_0_16_77
*468 FILLER_0_16_83
*469 FILLER_0_16_85
*470 FILLER_0_16_97
*471 FILLER_0_17_105
*472 FILLER_0_17_111
*473 FILLER_0_17_113
*474 FILLER_0_17_125
*475 FILLER_0_17_137
*476 FILLER_0_17_149
*477 FILLER_0_17_15
*478 FILLER_0_17_161
*479 FILLER_0_17_167
*480 FILLER_0_17_169
*481 FILLER_0_17_181
*482 FILLER_0_17_193
*483 FILLER_0_17_205
*484 FILLER_0_17_217
*485 FILLER_0_17_223
*486 FILLER_0_17_225
*487 FILLER_0_17_237
*488 FILLER_0_17_249
*489 FILLER_0_17_261
*490 FILLER_0_17_27
*491 FILLER_0_17_273
*492 FILLER_0_17_279
*493 FILLER_0_17_281
*494 FILLER_0_17_293
*495 FILLER_0_17_3
*496 FILLER_0_17_305
*497 FILLER_0_17_317
*498 FILLER_0_17_329
*499 FILLER_0_17_335
*500 FILLER_0_17_337
*501 FILLER_0_17_349
*502 FILLER_0_17_361
*503 FILLER_0_17_373
*504 FILLER_0_17_385
*505 FILLER_0_17_39
*506 FILLER_0_17_391
*507 FILLER_0_17_393
*508 FILLER_0_17_405
*509 FILLER_0_17_51
*510 FILLER_0_17_55
*511 FILLER_0_17_57
*512 FILLER_0_17_69
*513 FILLER_0_17_81
*514 FILLER_0_17_93
*515 FILLER_0_18_109
*516 FILLER_0_18_121
*517 FILLER_0_18_133
*518 FILLER_0_18_139
*519 FILLER_0_18_141
*520 FILLER_0_18_15
*521 FILLER_0_18_153
*522 FILLER_0_18_165
*523 FILLER_0_18_177
*524 FILLER_0_18_189
*525 FILLER_0_18_195
*526 FILLER_0_18_197
*527 FILLER_0_18_209
*528 FILLER_0_18_221
*529 FILLER_0_18_233
*530 FILLER_0_18_245
*531 FILLER_0_18_251
*532 FILLER_0_18_253
*533 FILLER_0_18_265
*534 FILLER_0_18_27
*535 FILLER_0_18_277
*536 FILLER_0_18_289
*537 FILLER_0_18_29
*538 FILLER_0_18_3
*539 FILLER_0_18_301
*540 FILLER_0_18_307
*541 FILLER_0_18_309
*542 FILLER_0_18_321
*543 FILLER_0_18_333
*544 FILLER_0_18_345
*545 FILLER_0_18_357
*546 FILLER_0_18_363
*547 FILLER_0_18_365
*548 FILLER_0_18_377
*549 FILLER_0_18_389
*550 FILLER_0_18_401
*551 FILLER_0_18_41
*552 FILLER_0_18_53
*553 FILLER_0_18_65
*554 FILLER_0_18_77
*555 FILLER_0_18_83
*556 FILLER_0_18_85
*557 FILLER_0_18_97
*558 FILLER_0_19_105
*559 FILLER_0_19_111
*560 FILLER_0_19_113
*561 FILLER_0_19_125
*562 FILLER_0_19_137
*563 FILLER_0_19_149
*564 FILLER_0_19_15
*565 FILLER_0_19_161
*566 FILLER_0_19_167
*567 FILLER_0_19_169
*568 FILLER_0_19_181
*569 FILLER_0_19_193
*570 FILLER_0_19_205
*571 FILLER_0_19_217
*572 FILLER_0_19_223
*573 FILLER_0_19_225
*574 FILLER_0_19_237
*575 FILLER_0_19_249
*576 FILLER_0_19_261
*577 FILLER_0_19_27
*578 FILLER_0_19_273
*579 FILLER_0_19_279
*580 FILLER_0_19_281
*581 FILLER_0_19_293
*582 FILLER_0_19_3
*583 FILLER_0_19_305
*584 FILLER_0_19_317
*585 FILLER_0_19_329
*586 FILLER_0_19_335
*587 FILLER_0_19_337
*588 FILLER_0_19_349
*589 FILLER_0_19_361
*590 FILLER_0_19_373
*591 FILLER_0_19_385
*592 FILLER_0_19_39
*593 FILLER_0_19_391
*594 FILLER_0_19_393
*595 FILLER_0_19_405
*596 FILLER_0_19_51
*597 FILLER_0_19_55
*598 FILLER_0_19_57
*599 FILLER_0_19_69
*600 FILLER_0_19_81
*601 FILLER_0_19_93
*602 FILLER_0_1_105
*603 FILLER_0_1_111
*604 FILLER_0_1_113
*605 FILLER_0_1_125
*606 FILLER_0_1_137
*607 FILLER_0_1_149
*608 FILLER_0_1_15
*609 FILLER_0_1_161
*610 FILLER_0_1_167
*611 FILLER_0_1_169
*612 FILLER_0_1_181
*613 FILLER_0_1_193
*614 FILLER_0_1_205
*615 FILLER_0_1_217
*616 FILLER_0_1_223
*617 FILLER_0_1_225
*618 FILLER_0_1_237
*619 FILLER_0_1_249
*620 FILLER_0_1_261
*621 FILLER_0_1_27
*622 FILLER_0_1_273
*623 FILLER_0_1_279
*624 FILLER_0_1_281
*625 FILLER_0_1_293
*626 FILLER_0_1_3
*627 FILLER_0_1_305
*628 FILLER_0_1_317
*629 FILLER_0_1_329
*630 FILLER_0_1_335
*631 FILLER_0_1_337
*632 FILLER_0_1_349
*633 FILLER_0_1_361
*634 FILLER_0_1_373
*635 FILLER_0_1_385
*636 FILLER_0_1_39
*637 FILLER_0_1_391
*638 FILLER_0_1_393
*639 FILLER_0_1_405
*640 FILLER_0_1_51
*641 FILLER_0_1_55
*642 FILLER_0_1_57
*643 FILLER_0_1_69
*644 FILLER_0_1_81
*645 FILLER_0_1_93
*646 FILLER_0_20_109
*647 FILLER_0_20_121
*648 FILLER_0_20_133
*649 FILLER_0_20_139
*650 FILLER_0_20_141
*651 FILLER_0_20_15
*652 FILLER_0_20_153
*653 FILLER_0_20_165
*654 FILLER_0_20_177
*655 FILLER_0_20_189
*656 FILLER_0_20_195
*657 FILLER_0_20_197
*658 FILLER_0_20_209
*659 FILLER_0_20_221
*660 FILLER_0_20_233
*661 FILLER_0_20_245
*662 FILLER_0_20_251
*663 FILLER_0_20_253
*664 FILLER_0_20_265
*665 FILLER_0_20_27
*666 FILLER_0_20_277
*667 FILLER_0_20_289
*668 FILLER_0_20_29
*669 FILLER_0_20_3
*670 FILLER_0_20_301
*671 FILLER_0_20_307
*672 FILLER_0_20_309
*673 FILLER_0_20_321
*674 FILLER_0_20_333
*675 FILLER_0_20_345
*676 FILLER_0_20_357
*677 FILLER_0_20_363
*678 FILLER_0_20_365
*679 FILLER_0_20_377
*680 FILLER_0_20_389
*681 FILLER_0_20_401
*682 FILLER_0_20_41
*683 FILLER_0_20_53
*684 FILLER_0_20_65
*685 FILLER_0_20_77
*686 FILLER_0_20_83
*687 FILLER_0_20_85
*688 FILLER_0_20_97
*689 FILLER_0_21_105
*690 FILLER_0_21_111
*691 FILLER_0_21_113
*692 FILLER_0_21_125
*693 FILLER_0_21_137
*694 FILLER_0_21_149
*695 FILLER_0_21_15
*696 FILLER_0_21_161
*697 FILLER_0_21_167
*698 FILLER_0_21_169
*699 FILLER_0_21_181
*700 FILLER_0_21_193
*701 FILLER_0_21_205
*702 FILLER_0_21_217
*703 FILLER_0_21_223
*704 FILLER_0_21_225
*705 FILLER_0_21_237
*706 FILLER_0_21_249
*707 FILLER_0_21_261
*708 FILLER_0_21_27
*709 FILLER_0_21_273
*710 FILLER_0_21_279
*711 FILLER_0_21_281
*712 FILLER_0_21_293
*713 FILLER_0_21_3
*714 FILLER_0_21_305
*715 FILLER_0_21_317
*716 FILLER_0_21_329
*717 FILLER_0_21_335
*718 FILLER_0_21_337
*719 FILLER_0_21_349
*720 FILLER_0_21_361
*721 FILLER_0_21_373
*722 FILLER_0_21_385
*723 FILLER_0_21_39
*724 FILLER_0_21_391
*725 FILLER_0_21_393
*726 FILLER_0_21_405
*727 FILLER_0_21_51
*728 FILLER_0_21_55
*729 FILLER_0_21_57
*730 FILLER_0_21_69
*731 FILLER_0_21_81
*732 FILLER_0_21_93
*733 FILLER_0_22_109
*734 FILLER_0_22_121
*735 FILLER_0_22_133
*736 FILLER_0_22_139
*737 FILLER_0_22_141
*738 FILLER_0_22_15
*739 FILLER_0_22_153
*740 FILLER_0_22_165
*741 FILLER_0_22_177
*742 FILLER_0_22_189
*743 FILLER_0_22_195
*744 FILLER_0_22_197
*745 FILLER_0_22_209
*746 FILLER_0_22_221
*747 FILLER_0_22_233
*748 FILLER_0_22_245
*749 FILLER_0_22_251
*750 FILLER_0_22_253
*751 FILLER_0_22_27
*752 FILLER_0_22_29
*753 FILLER_0_22_3
*754 FILLER_0_22_303
*755 FILLER_0_22_307
*756 FILLER_0_22_309
*757 FILLER_0_22_321
*758 FILLER_0_22_333
*759 FILLER_0_22_345
*760 FILLER_0_22_357
*761 FILLER_0_22_363
*762 FILLER_0_22_365
*763 FILLER_0_22_377
*764 FILLER_0_22_389
*765 FILLER_0_22_401
*766 FILLER_0_22_41
*767 FILLER_0_22_53
*768 FILLER_0_22_65
*769 FILLER_0_22_77
*770 FILLER_0_22_83
*771 FILLER_0_22_85
*772 FILLER_0_22_97
*773 FILLER_0_23_105
*774 FILLER_0_23_111
*775 FILLER_0_23_113
*776 FILLER_0_23_125
*777 FILLER_0_23_137
*778 FILLER_0_23_149
*779 FILLER_0_23_15
*780 FILLER_0_23_161
*781 FILLER_0_23_167
*782 FILLER_0_23_169
*783 FILLER_0_23_181
*784 FILLER_0_23_193
*785 FILLER_0_23_205
*786 FILLER_0_23_217
*787 FILLER_0_23_223
*788 FILLER_0_23_225
*789 FILLER_0_23_237
*790 FILLER_0_23_249
*791 FILLER_0_23_261
*792 FILLER_0_23_27
*793 FILLER_0_23_273
*794 FILLER_0_23_279
*795 FILLER_0_23_281
*796 FILLER_0_23_286
*797 FILLER_0_23_298
*798 FILLER_0_23_3
*799 FILLER_0_23_310
*800 FILLER_0_23_322
*801 FILLER_0_23_334
*802 FILLER_0_23_337
*803 FILLER_0_23_349
*804 FILLER_0_23_361
*805 FILLER_0_23_373
*806 FILLER_0_23_385
*807 FILLER_0_23_39
*808 FILLER_0_23_391
*809 FILLER_0_23_393
*810 FILLER_0_23_405
*811 FILLER_0_23_51
*812 FILLER_0_23_55
*813 FILLER_0_23_57
*814 FILLER_0_23_69
*815 FILLER_0_23_81
*816 FILLER_0_23_93
*817 FILLER_0_24_109
*818 FILLER_0_24_121
*819 FILLER_0_24_133
*820 FILLER_0_24_139
*821 FILLER_0_24_141
*822 FILLER_0_24_15
*823 FILLER_0_24_153
*824 FILLER_0_24_165
*825 FILLER_0_24_177
*826 FILLER_0_24_189
*827 FILLER_0_24_195
*828 FILLER_0_24_197
*829 FILLER_0_24_209
*830 FILLER_0_24_221
*831 FILLER_0_24_233
*832 FILLER_0_24_245
*833 FILLER_0_24_251
*834 FILLER_0_24_27
*835 FILLER_0_24_280
*836 FILLER_0_24_29
*837 FILLER_0_24_292
*838 FILLER_0_24_3
*839 FILLER_0_24_304
*840 FILLER_0_24_309
*841 FILLER_0_24_321
*842 FILLER_0_24_333
*843 FILLER_0_24_345
*844 FILLER_0_24_357
*845 FILLER_0_24_363
*846 FILLER_0_24_365
*847 FILLER_0_24_377
*848 FILLER_0_24_389
*849 FILLER_0_24_401
*850 FILLER_0_24_41
*851 FILLER_0_24_53
*852 FILLER_0_24_65
*853 FILLER_0_24_77
*854 FILLER_0_24_83
*855 FILLER_0_24_85
*856 FILLER_0_24_97
*857 FILLER_0_25_108
*858 FILLER_0_25_113
*859 FILLER_0_25_125
*860 FILLER_0_25_137
*861 FILLER_0_25_149
*862 FILLER_0_25_161
*863 FILLER_0_25_167
*864 FILLER_0_25_169
*865 FILLER_0_25_18
*866 FILLER_0_25_181
*867 FILLER_0_25_193
*868 FILLER_0_25_205
*869 FILLER_0_25_217
*870 FILLER_0_25_223
*871 FILLER_0_25_225
*872 FILLER_0_25_237
*873 FILLER_0_25_241
*874 FILLER_0_25_250
*875 FILLER_0_25_267
*876 FILLER_0_25_279
*877 FILLER_0_25_284
*878 FILLER_0_25_288
*879 FILLER_0_25_30
*880 FILLER_0_25_304
*881 FILLER_0_25_316
*882 FILLER_0_25_328
*883 FILLER_0_25_337
*884 FILLER_0_25_349
*885 FILLER_0_25_361
*886 FILLER_0_25_373
*887 FILLER_0_25_385
*888 FILLER_0_25_391
*889 FILLER_0_25_393
*890 FILLER_0_25_401
*891 FILLER_0_25_42
*892 FILLER_0_25_54
*893 FILLER_0_25_57
*894 FILLER_0_25_6
*895 FILLER_0_25_65
*896 FILLER_0_25_72
*897 FILLER_0_25_84
*898 FILLER_0_25_96
*899 FILLER_0_26_109
*900 FILLER_0_26_121
*901 FILLER_0_26_133
*902 FILLER_0_26_139
*903 FILLER_0_26_141
*904 FILLER_0_26_15
*905 FILLER_0_26_153
*906 FILLER_0_26_165
*907 FILLER_0_26_177
*908 FILLER_0_26_189
*909 FILLER_0_26_195
*910 FILLER_0_26_197
*911 FILLER_0_26_209
*912 FILLER_0_26_221
*913 FILLER_0_26_229
*914 FILLER_0_26_244
*915 FILLER_0_26_27
*916 FILLER_0_26_29
*917 FILLER_0_26_3
*918 FILLER_0_26_303
*919 FILLER_0_26_307
*920 FILLER_0_26_309
*921 FILLER_0_26_321
*922 FILLER_0_26_333
*923 FILLER_0_26_345
*924 FILLER_0_26_357
*925 FILLER_0_26_363
*926 FILLER_0_26_365
*927 FILLER_0_26_377
*928 FILLER_0_26_389
*929 FILLER_0_26_401
*930 FILLER_0_26_41
*931 FILLER_0_26_53
*932 FILLER_0_26_65
*933 FILLER_0_26_77
*934 FILLER_0_26_83
*935 FILLER_0_26_85
*936 FILLER_0_26_97
*937 FILLER_0_27_105
*938 FILLER_0_27_111
*939 FILLER_0_27_113
*940 FILLER_0_27_125
*941 FILLER_0_27_137
*942 FILLER_0_27_149
*943 FILLER_0_27_15
*944 FILLER_0_27_161
*945 FILLER_0_27_167
*946 FILLER_0_27_169
*947 FILLER_0_27_181
*948 FILLER_0_27_193
*949 FILLER_0_27_205
*950 FILLER_0_27_217
*951 FILLER_0_27_223
*952 FILLER_0_27_225
*953 FILLER_0_27_237
*954 FILLER_0_27_243
*955 FILLER_0_27_255
*956 FILLER_0_27_263
*957 FILLER_0_27_269
*958 FILLER_0_27_27
*959 FILLER_0_27_277
*960 FILLER_0_27_281
*961 FILLER_0_27_293
*962 FILLER_0_27_3
*963 FILLER_0_27_305
*964 FILLER_0_27_317
*965 FILLER_0_27_329
*966 FILLER_0_27_335
*967 FILLER_0_27_337
*968 FILLER_0_27_349
*969 FILLER_0_27_361
*970 FILLER_0_27_373
*971 FILLER_0_27_385
*972 FILLER_0_27_39
*973 FILLER_0_27_391
*974 FILLER_0_27_393
*975 FILLER_0_27_405
*976 FILLER_0_27_51
*977 FILLER_0_27_55
*978 FILLER_0_27_57
*979 FILLER_0_27_69
*980 FILLER_0_27_81
*981 FILLER_0_27_93
*982 FILLER_0_28_109
*983 FILLER_0_28_121
*984 FILLER_0_28_133
*985 FILLER_0_28_139
*986 FILLER_0_28_141
*987 FILLER_0_28_15
*988 FILLER_0_28_153
*989 FILLER_0_28_165
*990 FILLER_0_28_177
*991 FILLER_0_28_189
*992 FILLER_0_28_195
*993 FILLER_0_28_197
*994 FILLER_0_28_209
*995 FILLER_0_28_221
*996 FILLER_0_28_233
*997 FILLER_0_28_245
*998 FILLER_0_28_253
*999 FILLER_0_28_257
*1000 FILLER_0_28_265
*1001 FILLER_0_28_27
*1002 FILLER_0_28_277
*1003 FILLER_0_28_29
*1004 FILLER_0_28_297
*1005 FILLER_0_28_3
*1006 FILLER_0_28_305
*1007 FILLER_0_28_309
*1008 FILLER_0_28_321
*1009 FILLER_0_28_333
*1010 FILLER_0_28_345
*1011 FILLER_0_28_357
*1012 FILLER_0_28_363
*1013 FILLER_0_28_365
*1014 FILLER_0_28_377
*1015 FILLER_0_28_389
*1016 FILLER_0_28_401
*1017 FILLER_0_28_41
*1018 FILLER_0_28_53
*1019 FILLER_0_28_65
*1020 FILLER_0_28_77
*1021 FILLER_0_28_83
*1022 FILLER_0_28_85
*1023 FILLER_0_28_97
*1024 FILLER_0_29_105
*1025 FILLER_0_29_111
*1026 FILLER_0_29_113
*1027 FILLER_0_29_125
*1028 FILLER_0_29_137
*1029 FILLER_0_29_149
*1030 FILLER_0_29_15
*1031 FILLER_0_29_161
*1032 FILLER_0_29_167
*1033 FILLER_0_29_169
*1034 FILLER_0_29_181
*1035 FILLER_0_29_193
*1036 FILLER_0_29_205
*1037 FILLER_0_29_217
*1038 FILLER_0_29_223
*1039 FILLER_0_29_225
*1040 FILLER_0_29_231
*1041 FILLER_0_29_244
*1042 FILLER_0_29_269
*1043 FILLER_0_29_27
*1044 FILLER_0_29_275
*1045 FILLER_0_29_281
*1046 FILLER_0_29_3
*1047 FILLER_0_29_300
*1048 FILLER_0_29_312
*1049 FILLER_0_29_324
*1050 FILLER_0_29_337
*1051 FILLER_0_29_349
*1052 FILLER_0_29_361
*1053 FILLER_0_29_373
*1054 FILLER_0_29_385
*1055 FILLER_0_29_39
*1056 FILLER_0_29_391
*1057 FILLER_0_29_393
*1058 FILLER_0_29_405
*1059 FILLER_0_29_51
*1060 FILLER_0_29_55
*1061 FILLER_0_29_57
*1062 FILLER_0_29_69
*1063 FILLER_0_29_81
*1064 FILLER_0_29_93
*1065 FILLER_0_2_109
*1066 FILLER_0_2_121
*1067 FILLER_0_2_133
*1068 FILLER_0_2_139
*1069 FILLER_0_2_141
*1070 FILLER_0_2_15
*1071 FILLER_0_2_153
*1072 FILLER_0_2_165
*1073 FILLER_0_2_177
*1074 FILLER_0_2_189
*1075 FILLER_0_2_195
*1076 FILLER_0_2_197
*1077 FILLER_0_2_209
*1078 FILLER_0_2_221
*1079 FILLER_0_2_233
*1080 FILLER_0_2_245
*1081 FILLER_0_2_251
*1082 FILLER_0_2_253
*1083 FILLER_0_2_265
*1084 FILLER_0_2_27
*1085 FILLER_0_2_277
*1086 FILLER_0_2_289
*1087 FILLER_0_2_29
*1088 FILLER_0_2_3
*1089 FILLER_0_2_301
*1090 FILLER_0_2_307
*1091 FILLER_0_2_309
*1092 FILLER_0_2_321
*1093 FILLER_0_2_333
*1094 FILLER_0_2_345
*1095 FILLER_0_2_357
*1096 FILLER_0_2_363
*1097 FILLER_0_2_365
*1098 FILLER_0_2_377
*1099 FILLER_0_2_389
*1100 FILLER_0_2_401
*1101 FILLER_0_2_41
*1102 FILLER_0_2_53
*1103 FILLER_0_2_65
*1104 FILLER_0_2_77
*1105 FILLER_0_2_83
*1106 FILLER_0_2_85
*1107 FILLER_0_2_97
*1108 FILLER_0_30_109
*1109 FILLER_0_30_121
*1110 FILLER_0_30_133
*1111 FILLER_0_30_139
*1112 FILLER_0_30_141
*1113 FILLER_0_30_15
*1114 FILLER_0_30_153
*1115 FILLER_0_30_165
*1116 FILLER_0_30_177
*1117 FILLER_0_30_189
*1118 FILLER_0_30_195
*1119 FILLER_0_30_197
*1120 FILLER_0_30_209
*1121 FILLER_0_30_221
*1122 FILLER_0_30_233
*1123 FILLER_0_30_237
*1124 FILLER_0_30_259
*1125 FILLER_0_30_27
*1126 FILLER_0_30_273
*1127 FILLER_0_30_287
*1128 FILLER_0_30_29
*1129 FILLER_0_30_299
*1130 FILLER_0_30_3
*1131 FILLER_0_30_307
*1132 FILLER_0_30_309
*1133 FILLER_0_30_321
*1134 FILLER_0_30_333
*1135 FILLER_0_30_345
*1136 FILLER_0_30_357
*1137 FILLER_0_30_363
*1138 FILLER_0_30_365
*1139 FILLER_0_30_377
*1140 FILLER_0_30_389
*1141 FILLER_0_30_401
*1142 FILLER_0_30_41
*1143 FILLER_0_30_53
*1144 FILLER_0_30_65
*1145 FILLER_0_30_77
*1146 FILLER_0_30_83
*1147 FILLER_0_30_85
*1148 FILLER_0_30_97
*1149 FILLER_0_31_105
*1150 FILLER_0_31_111
*1151 FILLER_0_31_113
*1152 FILLER_0_31_125
*1153 FILLER_0_31_137
*1154 FILLER_0_31_149
*1155 FILLER_0_31_15
*1156 FILLER_0_31_161
*1157 FILLER_0_31_167
*1158 FILLER_0_31_169
*1159 FILLER_0_31_181
*1160 FILLER_0_31_193
*1161 FILLER_0_31_205
*1162 FILLER_0_31_217
*1163 FILLER_0_31_223
*1164 FILLER_0_31_225
*1165 FILLER_0_31_237
*1166 FILLER_0_31_245
*1167 FILLER_0_31_263
*1168 FILLER_0_31_27
*1169 FILLER_0_31_278
*1170 FILLER_0_31_284
*1171 FILLER_0_31_296
*1172 FILLER_0_31_3
*1173 FILLER_0_31_308
*1174 FILLER_0_31_320
*1175 FILLER_0_31_332
*1176 FILLER_0_31_337
*1177 FILLER_0_31_349
*1178 FILLER_0_31_361
*1179 FILLER_0_31_373
*1180 FILLER_0_31_385
*1181 FILLER_0_31_39
*1182 FILLER_0_31_391
*1183 FILLER_0_31_393
*1184 FILLER_0_31_405
*1185 FILLER_0_31_51
*1186 FILLER_0_31_55
*1187 FILLER_0_31_57
*1188 FILLER_0_31_69
*1189 FILLER_0_31_81
*1190 FILLER_0_31_93
*1191 FILLER_0_32_109
*1192 FILLER_0_32_121
*1193 FILLER_0_32_133
*1194 FILLER_0_32_139
*1195 FILLER_0_32_141
*1196 FILLER_0_32_15
*1197 FILLER_0_32_153
*1198 FILLER_0_32_165
*1199 FILLER_0_32_177
*1200 FILLER_0_32_189
*1201 FILLER_0_32_195
*1202 FILLER_0_32_197
*1203 FILLER_0_32_209
*1204 FILLER_0_32_221
*1205 FILLER_0_32_233
*1206 FILLER_0_32_245
*1207 FILLER_0_32_251
*1208 FILLER_0_32_253
*1209 FILLER_0_32_265
*1210 FILLER_0_32_27
*1211 FILLER_0_32_277
*1212 FILLER_0_32_285
*1213 FILLER_0_32_29
*1214 FILLER_0_32_298
*1215 FILLER_0_32_3
*1216 FILLER_0_32_306
*1217 FILLER_0_32_309
*1218 FILLER_0_32_321
*1219 FILLER_0_32_333
*1220 FILLER_0_32_345
*1221 FILLER_0_32_357
*1222 FILLER_0_32_363
*1223 FILLER_0_32_365
*1224 FILLER_0_32_377
*1225 FILLER_0_32_389
*1226 FILLER_0_32_401
*1227 FILLER_0_32_41
*1228 FILLER_0_32_53
*1229 FILLER_0_32_65
*1230 FILLER_0_32_77
*1231 FILLER_0_32_83
*1232 FILLER_0_32_85
*1233 FILLER_0_32_97
*1234 FILLER_0_33_105
*1235 FILLER_0_33_111
*1236 FILLER_0_33_113
*1237 FILLER_0_33_125
*1238 FILLER_0_33_137
*1239 FILLER_0_33_149
*1240 FILLER_0_33_15
*1241 FILLER_0_33_161
*1242 FILLER_0_33_167
*1243 FILLER_0_33_169
*1244 FILLER_0_33_181
*1245 FILLER_0_33_193
*1246 FILLER_0_33_205
*1247 FILLER_0_33_217
*1248 FILLER_0_33_223
*1249 FILLER_0_33_225
*1250 FILLER_0_33_237
*1251 FILLER_0_33_245
*1252 FILLER_0_33_252
*1253 FILLER_0_33_256
*1254 FILLER_0_33_263
*1255 FILLER_0_33_269
*1256 FILLER_0_33_27
*1257 FILLER_0_33_277
*1258 FILLER_0_33_281
*1259 FILLER_0_33_293
*1260 FILLER_0_33_3
*1261 FILLER_0_33_305
*1262 FILLER_0_33_317
*1263 FILLER_0_33_329
*1264 FILLER_0_33_335
*1265 FILLER_0_33_337
*1266 FILLER_0_33_349
*1267 FILLER_0_33_361
*1268 FILLER_0_33_373
*1269 FILLER_0_33_385
*1270 FILLER_0_33_39
*1271 FILLER_0_33_391
*1272 FILLER_0_33_393
*1273 FILLER_0_33_405
*1274 FILLER_0_33_51
*1275 FILLER_0_33_55
*1276 FILLER_0_33_57
*1277 FILLER_0_33_69
*1278 FILLER_0_33_81
*1279 FILLER_0_33_93
*1280 FILLER_0_34_109
*1281 FILLER_0_34_121
*1282 FILLER_0_34_133
*1283 FILLER_0_34_139
*1284 FILLER_0_34_141
*1285 FILLER_0_34_15
*1286 FILLER_0_34_153
*1287 FILLER_0_34_165
*1288 FILLER_0_34_177
*1289 FILLER_0_34_189
*1290 FILLER_0_34_195
*1291 FILLER_0_34_197
*1292 FILLER_0_34_209
*1293 FILLER_0_34_221
*1294 FILLER_0_34_233
*1295 FILLER_0_34_245
*1296 FILLER_0_34_251
*1297 FILLER_0_34_257
*1298 FILLER_0_34_265
*1299 FILLER_0_34_27
*1300 FILLER_0_34_29
*1301 FILLER_0_34_291
*1302 FILLER_0_34_3
*1303 FILLER_0_34_303
*1304 FILLER_0_34_307
*1305 FILLER_0_34_309
*1306 FILLER_0_34_321
*1307 FILLER_0_34_333
*1308 FILLER_0_34_345
*1309 FILLER_0_34_357
*1310 FILLER_0_34_363
*1311 FILLER_0_34_365
*1312 FILLER_0_34_377
*1313 FILLER_0_34_389
*1314 FILLER_0_34_401
*1315 FILLER_0_34_41
*1316 FILLER_0_34_53
*1317 FILLER_0_34_65
*1318 FILLER_0_34_77
*1319 FILLER_0_34_83
*1320 FILLER_0_34_85
*1321 FILLER_0_34_97
*1322 FILLER_0_35_105
*1323 FILLER_0_35_111
*1324 FILLER_0_35_113
*1325 FILLER_0_35_125
*1326 FILLER_0_35_137
*1327 FILLER_0_35_149
*1328 FILLER_0_35_161
*1329 FILLER_0_35_167
*1330 FILLER_0_35_169
*1331 FILLER_0_35_181
*1332 FILLER_0_35_19
*1333 FILLER_0_35_193
*1334 FILLER_0_35_205
*1335 FILLER_0_35_217
*1336 FILLER_0_35_223
*1337 FILLER_0_35_225
*1338 FILLER_0_35_237
*1339 FILLER_0_35_249
*1340 FILLER_0_35_255
*1341 FILLER_0_35_281
*1342 FILLER_0_35_293
*1343 FILLER_0_35_305
*1344 FILLER_0_35_31
*1345 FILLER_0_35_317
*1346 FILLER_0_35_329
*1347 FILLER_0_35_335
*1348 FILLER_0_35_337
*1349 FILLER_0_35_349
*1350 FILLER_0_35_361
*1351 FILLER_0_35_373
*1352 FILLER_0_35_385
*1353 FILLER_0_35_391
*1354 FILLER_0_35_393
*1355 FILLER_0_35_401
*1356 FILLER_0_35_43
*1357 FILLER_0_35_55
*1358 FILLER_0_35_57
*1359 FILLER_0_35_69
*1360 FILLER_0_35_7
*1361 FILLER_0_35_81
*1362 FILLER_0_35_93
*1363 FILLER_0_36_109
*1364 FILLER_0_36_121
*1365 FILLER_0_36_133
*1366 FILLER_0_36_139
*1367 FILLER_0_36_141
*1368 FILLER_0_36_15
*1369 FILLER_0_36_153
*1370 FILLER_0_36_165
*1371 FILLER_0_36_177
*1372 FILLER_0_36_189
*1373 FILLER_0_36_195
*1374 FILLER_0_36_197
*1375 FILLER_0_36_209
*1376 FILLER_0_36_221
*1377 FILLER_0_36_233
*1378 FILLER_0_36_245
*1379 FILLER_0_36_251
*1380 FILLER_0_36_253
*1381 FILLER_0_36_265
*1382 FILLER_0_36_27
*1383 FILLER_0_36_277
*1384 FILLER_0_36_289
*1385 FILLER_0_36_29
*1386 FILLER_0_36_3
*1387 FILLER_0_36_301
*1388 FILLER_0_36_307
*1389 FILLER_0_36_309
*1390 FILLER_0_36_321
*1391 FILLER_0_36_333
*1392 FILLER_0_36_345
*1393 FILLER_0_36_357
*1394 FILLER_0_36_363
*1395 FILLER_0_36_365
*1396 FILLER_0_36_377
*1397 FILLER_0_36_389
*1398 FILLER_0_36_401
*1399 FILLER_0_36_41
*1400 FILLER_0_36_53
*1401 FILLER_0_36_65
*1402 FILLER_0_36_77
*1403 FILLER_0_36_83
*1404 FILLER_0_36_85
*1405 FILLER_0_36_97
*1406 FILLER_0_37_105
*1407 FILLER_0_37_111
*1408 FILLER_0_37_113
*1409 FILLER_0_37_125
*1410 FILLER_0_37_137
*1411 FILLER_0_37_149
*1412 FILLER_0_37_15
*1413 FILLER_0_37_161
*1414 FILLER_0_37_167
*1415 FILLER_0_37_169
*1416 FILLER_0_37_181
*1417 FILLER_0_37_193
*1418 FILLER_0_37_205
*1419 FILLER_0_37_217
*1420 FILLER_0_37_223
*1421 FILLER_0_37_225
*1422 FILLER_0_37_237
*1423 FILLER_0_37_249
*1424 FILLER_0_37_261
*1425 FILLER_0_37_27
*1426 FILLER_0_37_273
*1427 FILLER_0_37_279
*1428 FILLER_0_37_281
*1429 FILLER_0_37_293
*1430 FILLER_0_37_3
*1431 FILLER_0_37_305
*1432 FILLER_0_37_317
*1433 FILLER_0_37_329
*1434 FILLER_0_37_335
*1435 FILLER_0_37_337
*1436 FILLER_0_37_349
*1437 FILLER_0_37_361
*1438 FILLER_0_37_373
*1439 FILLER_0_37_385
*1440 FILLER_0_37_39
*1441 FILLER_0_37_391
*1442 FILLER_0_37_393
*1443 FILLER_0_37_405
*1444 FILLER_0_37_51
*1445 FILLER_0_37_55
*1446 FILLER_0_37_57
*1447 FILLER_0_37_69
*1448 FILLER_0_37_81
*1449 FILLER_0_37_93
*1450 FILLER_0_38_109
*1451 FILLER_0_38_121
*1452 FILLER_0_38_133
*1453 FILLER_0_38_139
*1454 FILLER_0_38_141
*1455 FILLER_0_38_15
*1456 FILLER_0_38_153
*1457 FILLER_0_38_165
*1458 FILLER_0_38_177
*1459 FILLER_0_38_189
*1460 FILLER_0_38_195
*1461 FILLER_0_38_197
*1462 FILLER_0_38_209
*1463 FILLER_0_38_221
*1464 FILLER_0_38_233
*1465 FILLER_0_38_245
*1466 FILLER_0_38_251
*1467 FILLER_0_38_253
*1468 FILLER_0_38_265
*1469 FILLER_0_38_27
*1470 FILLER_0_38_277
*1471 FILLER_0_38_289